# created with PyMOL 3.0.0
@<TRIPOS>MOLECULE
cage_cavity
576 636 1               
SMALL
USER_CHARGES
@<TRIPOS>ATOM
1	   N	-9.930	1.672	-0.018	N.3	1	CG0	0.000	
2	   N	-9.914	-2.066	-0.481	N.3	1	CG0	0.000	
3	   N	1.863	8.715	-0.382	N.3	1	CG0	0.000	
4	   N	-1.822	9.363	-0.771	N.3	1	CG0	0.000	
5	   N	9.507	-1.882	-0.079	N.3	1	CG0	0.000	
6	   N	9.508	1.875	-0.300	N.3	1	CG0	0.000	
7	   N	2.037	-9.337	0.585	N.3	1	CG0	0.000	
8	   N	-1.689	-9.424	0.287	N.3	1	CG0	0.000	
9	   N	-5.031	-5.533	4.161	N.3	1	CG0	0.000	
10	   N	-3.346	-3.716	6.993	N.3	1	CG0	0.000	
11	   N	-5.741	4.417	4.255	N.3	1	CG0	0.000	
12	   N	-4.570	2.359	7.192	N.3	1	CG0	0.000	
13	   N	5.957	-4.895	5.047	N.3	1	CG0	0.000	
14	   N	3.693	-2.672	7.051	N.3	1	CG0	0.000	
15	   N	5.561	5.970	5.294	N.3	1	CG0	0.000	
16	   N	3.293	3.914	7.430	N.3	1	CG0	0.000	
17	   N	-5.763	-5.443	-4.988	N.3	1	CG0	0.000	
18	   N	-3.225	-3.408	-6.905	N.3	1	CG0	0.000	
19	   N	-5.039	6.193	-4.999	N.3	1	CG0	0.000	
20	   N	-2.856	3.874	-7.001	N.3	1	CG0	0.000	
21	   N	5.243	-6.330	-5.307	N.3	1	CG0	0.000	
22	   N	3.338	-4.395	-7.869	N.3	1	CG0	0.000	
23	   N	5.480	4.931	-4.802	N.3	1	CG0	0.000	
24	   N	4.165	4.437	-8.288	N.3	1	CG0	0.000	
25	   C	-10.027	-5.095	-1.081	C.3	1	CG0	0.000	
26	   C	-10.421	-6.624	1.283	C.3	1	CG0	0.000	
27	   C	-10.352	-6.468	-1.168	C.3	1	CG0	0.000	
28	   C	-10.001	-4.464	0.170	C.3	1	CG0	0.000	
29	   C	-10.175	-5.242	1.335	C.3	1	CG0	0.000	
30	   C	-10.507	-7.217	0.017	C.3	1	CG0	0.000	
31	   C	-10.477	-7.137	-2.532	C.3	1	CG0	0.000	
32	   C	-10.479	-7.437	2.579	C.3	1	CG0	0.000	
33	   C	-11.621	-8.165	-2.632	C.3	1	CG0	0.000	
34	   C	-11.448	-8.631	2.531	C.3	1	CG0	0.000	
35	   C	-9.121	-7.675	-2.974	C.3	1	CG0	0.000	
36	   C	-6.670	-8.691	-3.869	C.3	1	CG0	0.000	
37	   C	-8.708	-8.978	-2.630	C.3	1	CG0	0.000	
38	   C	-8.244	-6.850	-3.706	C.3	1	CG0	0.000	
39	   C	-7.053	-7.381	-4.213	C.3	1	CG0	0.000	
40	   C	-7.483	-9.506	-3.062	C.3	1	CG0	0.000	
41	   C	-9.051	-7.790	3.001	C.3	1	CG0	0.000	
42	   C	-6.295	-8.270	3.478	C.3	1	CG0	0.000	
43	   C	-8.445	-8.988	2.602	C.3	1	CG0	0.000	
44	   C	-8.257	-6.860	3.697	C.3	1	CG0	0.000	
45	   C	-6.889	-7.087	3.927	C.3	1	CG0	0.000	
46	   C	-7.092	-9.266	2.877	C.3	1	CG0	0.000	
47	   C	-6.986	-10.876	-2.601	C.3	1	CG0	0.000	
48	   C	-6.483	-10.604	2.483	C.3	1	CG0	0.000	
49	   C	-6.118	-10.701	-1.353	C.3	1	CG0	0.000	
50	   C	-4.544	-10.124	0.926	C.3	1	CG0	0.000	
51	   C	-4.751	-10.389	-1.473	C.3	1	CG0	0.000	
52	   C	-6.665	-10.762	-0.062	C.3	1	CG0	0.000	
53	   C	-5.888	-10.512	1.084	C.3	1	CG0	0.000	
54	   C	-3.949	-10.145	-0.342	C.3	1	CG0	0.000	
55	   C	-7.416	-11.812	2.688	C.3	1	CG0	0.000	
56	   C	-8.089	-11.940	-2.457	C.3	1	CG0	0.000	
57	   C	-8.879	-4.697	3.178	C.3	1	CG0	0.000	
58	   C	-4.173	-8.466	2.515	C.3	1	CG0	0.000	
59	   C	-4.442	-9.080	-3.364	C.3	1	CG0	0.000	
60	   C	-8.508	-4.708	-2.824	C.3	1	CG0	0.000	
61	   C	-6.174	-6.660	-5.152	C.3	1	CG0	0.000	
62	   C	-2.494	-9.979	-0.557	C.3	1	CG0	0.000	
63	   C	-6.143	-6.013	4.612	C.3	1	CG0	0.000	
64	   C	-9.825	-3.012	0.399	C.3	1	CG0	0.000	
65	   C	-10.042	4.627	0.785	C.3	1	CG0	0.000	
66	   C	-10.432	6.345	-1.433	C.3	1	CG0	0.000	
67	   C	-10.321	5.997	0.993	C.3	1	CG0	0.000	
68	   C	-10.056	4.097	-0.513	C.3	1	CG0	0.000	
69	   C	-10.184	4.975	-1.606	C.3	1	CG0	0.000	
70	   C	-10.490	6.838	-0.124	C.3	1	CG0	0.000	
71	   C	-10.382	6.564	2.409	C.3	1	CG0	0.000	
72	   C	-10.560	7.255	-2.652	C.3	1	CG0	0.000	
73	   C	-11.502	7.600	2.625	C.3	1	CG0	0.000	
74	   C	-11.617	8.361	-2.495	C.3	1	CG0	0.000	
75	   C	-8.995	7.037	2.828	C.3	1	CG0	0.000	
76	   C	-6.426	7.887	3.592	C.3	1	CG0	0.000	
77	   C	-8.573	8.363	2.608	C.3	1	CG0	0.000	
78	   C	-8.087	6.123	3.396	C.3	1	CG0	0.000	
79	   C	-6.822	6.556	3.819	C.3	1	CG0	0.000	
80	   C	-7.299	8.813	2.992	C.3	1	CG0	0.000	
81	   C	-9.176	7.745	-3.067	C.3	1	CG0	0.000	
82	   C	-6.534	8.557	-3.701	C.3	1	CG0	0.000	
83	   C	-8.653	8.950	-2.582	C.3	1	CG0	0.000	
84	   C	-8.351	6.957	-3.887	C.3	1	CG0	0.000	
85	   C	-7.046	7.363	-4.218	C.3	1	CG0	0.000	
86	   C	-7.358	9.390	-2.916	C.3	1	CG0	0.000	
87	   C	-6.832	10.238	2.701	C.3	1	CG0	0.000	
88	   C	-6.829	10.717	-2.390	C.3	1	CG0	0.000	
89	   C	-6.085	10.273	1.368	C.3	1	CG0	0.000	
90	   C	-4.717	10.173	-1.101	C.3	1	CG0	0.000	
91	   C	-4.704	10.007	1.315	C.3	1	CG0	0.000	
92	   C	-6.760	10.501	0.158	C.3	1	CG0	0.000	
93	   C	-6.090	10.480	-1.079	C.3	1	CG0	0.000	
94	   C	-4.007	10.011	0.096	C.3	1	CG0	0.000	
95	   C	-7.877	11.843	-2.328	C.3	1	CG0	0.000	
96	   C	-7.933	11.309	2.827	C.3	1	CG0	0.000	
97	   C	-8.793	4.724	-3.438	C.3	1	CG0	0.000	
98	   C	-4.332	8.849	-2.971	C.3	1	CG0	0.000	
99	   C	-4.261	8.372	2.889	C.3	1	CG0	0.000	
100	   C	-8.492	4.033	2.428	C.3	1	CG0	0.000	
101	   C	-5.876	5.670	4.530	C.3	1	CG0	0.000	
102	   C	-2.529	9.964	0.124	C.3	1	CG0	0.000	
103	   C	-6.293	6.489	-5.134	C.3	1	CG0	0.000	
104	   C	-10.038	2.655	-0.851	C.3	1	CG0	0.000	
105	   C	9.596	-4.788	0.731	C.3	1	CG0	0.000	
106	   C	9.743	-6.525	-1.498	C.3	1	CG0	0.000	
107	   C	10.019	-6.123	0.907	C.3	1	CG0	0.000	
108	   C	9.343	-4.291	-0.559	C.3	1	CG0	0.000	
109	   C	9.341	-5.185	-1.649	C.3	1	CG0	0.000	
110	   C	10.065	-6.975	-0.210	C.3	1	CG0	0.000	
111	   C	10.383	-6.639	2.295	C.3	1	CG0	0.000	
112	   C	9.788	-7.463	-2.703	C.3	1	CG0	0.000	
113	   C	11.613	-7.566	2.322	C.3	1	CG0	0.000	
114	   C	10.968	-8.451	-2.685	C.3	1	CG0	0.000	
115	   C	9.145	-7.222	2.966	C.3	1	CG0	0.000	
116	   C	6.866	-8.274	4.204	C.3	1	CG0	0.000	
117	   C	8.815	-8.588	2.839	C.3	1	CG0	0.000	
118	   C	8.283	-6.373	3.687	C.3	1	CG0	0.000	
119	   C	7.176	-6.910	4.350	C.3	1	CG0	0.000	
120	   C	7.683	-9.139	3.458	C.3	1	CG0	0.000	
121	   C	8.418	-8.112	-2.889	C.3	1	CG0	0.000	
122	   C	5.827	-9.192	-3.088	C.3	1	CG0	0.000	
123	   C	8.103	-9.342	-2.290	C.3	1	CG0	0.000	
124	   C	7.410	-7.432	-3.602	C.3	1	CG0	0.000	
125	   C	6.118	-7.972	-3.724	C.3	1	CG0	0.000	
126	   C	6.826	-9.915	-2.406	C.3	1	CG0	0.000	
127	   C	7.283	-10.602	3.269	C.3	1	CG0	0.000	
128	   C	6.503	-11.255	-1.750	C.3	1	CG0	0.000	
129	   C	6.337	-10.723	2.074	C.3	1	CG0	0.000	
130	   C	4.602	-10.736	-0.152	C.3	1	CG0	0.000	
131	   C	4.960	-10.476	2.229	C.3	1	CG0	0.000	
132	   C	6.821	-10.977	0.778	C.3	1	CG0	0.000	
133	   C	5.968	-11.018	-0.341	C.3	1	CG0	0.000	
134	   C	4.095	-10.484	1.127	C.3	1	CG0	0.000	
135	   C	7.643	-12.288	-1.829	C.3	1	CG0	0.000	
136	   C	8.470	-11.580	3.241	C.3	1	CG0	0.000	
137	   C	7.693	-5.151	-3.298	C.3	1	CG0	0.000	
138	   C	3.811	-9.564	-1.978	C.3	1	CG0	0.000	
139	   C	4.654	-8.877	3.882	C.3	1	CG0	0.000	
140	   C	8.296	-4.303	2.610	C.3	1	CG0	0.000	
141	   C	6.302	-6.129	5.242	C.3	1	CG0	0.000	
142	   C	2.674	-10.155	1.353	C.3	1	CG0	0.000	
143	   C	5.036	-7.312	-4.498	C.3	1	CG0	0.000	
144	   C	9.218	-2.848	-0.888	C.3	1	CG0	0.000	
145	   C	4.695	9.896	1.578	C.3	1	CG0	0.000	
146	   C	5.866	10.374	-0.943	C.3	1	CG0	0.000	
147	   C	6.027	10.354	1.506	C.3	1	CG0	0.000	
148	   C	3.923	9.741	0.414	C.3	1	CG0	0.000	
149	   C	4.518	9.972	-0.838	C.3	1	CG0	0.000	
150	   C	6.601	10.549	0.238	C.3	1	CG0	0.000	
151	   C	6.852	10.572	2.769	C.3	1	CG0	0.000	
152	   C	6.525	10.499	-2.316	C.3	1	CG0	0.000	
153	   C	7.798	11.786	2.710	C.3	1	CG0	0.000	
154	   C	7.609	11.587	-2.416	C.3	1	CG0	0.000	
155	   C	7.540	9.273	3.174	C.3	1	CG0	0.000	
156	   C	8.771	6.873	3.955	C.3	1	CG0	0.000	
157	   C	8.822	8.930	2.701	C.3	1	CG0	0.000	
158	   C	6.856	8.355	3.991	C.3	1	CG0	0.000	
159	   C	7.482	7.180	4.417	C.3	1	CG0	0.000	
160	   C	9.459	7.735	3.081	C.3	1	CG0	0.000	
161	   C	6.986	9.113	-2.762	C.3	1	CG0	0.000	
162	   C	7.728	6.458	-3.414	C.3	1	CG0	0.000	
163	   C	8.271	8.628	-2.473	C.3	1	CG0	0.000	
164	   C	6.090	8.249	-3.414	C.3	1	CG0	0.000	
165	   C	6.469	6.946	-3.780	C.3	1	CG0	0.000	
166	   C	8.668	7.322	-2.822	C.3	1	CG0	0.000	
167	   C	10.801	7.311	2.482	C.3	1	CG0	0.000	
168	   C	10.079	6.820	-2.544	C.3	1	CG0	0.000	
169	   C	10.546	6.438	1.252	C.3	1	CG0	0.000	
170	   C	9.823	4.832	-0.974	C.3	1	CG0	0.000	
171	   C	10.300	5.059	1.391	C.3	1	CG0	0.000	
172	   C	10.454	6.986	-0.033	C.3	1	CG0	0.000	
173	   C	10.137	6.198	-1.155	C.3	1	CG0	0.000	
174	   C	9.951	4.243	0.293	C.3	1	CG0	0.000	
175	   C	11.180	7.860	-2.827	C.3	1	CG0	0.000	
176	   C	11.784	8.471	2.242	C.3	1	CG0	0.000	
177	   C	3.931	8.628	-2.632	C.3	1	CG0	0.000	
178	   C	8.141	4.343	-2.529	C.3	1	CG0	0.000	
179	   C	9.229	4.669	3.408	C.3	1	CG0	0.000	
180	   C	4.626	8.411	3.382	C.3	1	CG0	0.000	
181	   C	6.829	6.218	5.326	C.3	1	CG0	0.000	
182	   C	9.827	2.787	0.561	C.3	1	CG0	0.000	
183	   C	5.561	6.218	-4.683	C.3	1	CG0	0.000	
184	   C	2.496	9.349	0.546	C.3	1	CG0	0.000	
185	   C	-0.869	-3.577	9.686	C.3	1	CG0	0.000	
186	   C	-2.585	-1.717	10.900	C.3	1	CG0	0.000	
187	   C	-0.499	-3.011	10.919	C.3	1	CG0	0.000	
188	   C	-2.103	-3.272	9.079	C.3	1	CG0	0.000	
189	   C	-2.928	-2.295	9.659	C.3	1	CG0	0.000	
190	   C	-1.363	-2.071	11.498	C.3	1	CG0	0.000	
191	   C	0.835	-3.366	11.570	C.3	1	CG0	0.000	
192	   C	-3.498	-0.682	11.549	C.3	1	CG0	0.000	
193	   C	0.773	-3.484	13.104	C.3	1	CG0	0.000	
194	   C	-3.578	-0.773	13.085	C.3	1	CG0	0.000	
195	   C	1.921	-2.428	11.050	C.3	1	CG0	0.000	
196	   C	3.867	-0.674	10.013	C.3	1	CG0	0.000	
197	   C	2.249	-1.234	11.717	C.3	1	CG0	0.000	
198	   C	2.566	-2.713	9.833	C.3	1	CG0	0.000	
199	   C	3.550	-1.853	9.326	C.3	1	CG0	0.000	
200	   C	3.233	-0.355	11.228	C.3	1	CG0	0.000	
201	   C	-3.143	0.704	11.024	C.3	1	CG0	0.000	
202	   C	-2.468	3.231	9.998	C.3	1	CG0	0.000	
203	   C	-2.201	1.521	11.676	C.3	1	CG0	0.000	
204	   C	-3.727	1.165	9.829	C.3	1	CG0	0.000	
205	   C	-3.432	2.447	9.344	C.3	1	CG0	0.000	
206	   C	-1.862	2.795	11.192	C.3	1	CG0	0.000	
207	   C	3.541	0.962	11.937	C.3	1	CG0	0.000	
208	   C	-0.818	3.660	11.897	C.3	1	CG0	0.000	
209	   C	2.661	2.068	11.354	C.3	1	CG0	0.000	
210	   C	1.007	4.020	10.170	C.3	1	CG0	0.000	
211	   C	3.068	2.743	10.187	C.3	1	CG0	0.000	
212	   C	1.401	2.378	11.897	C.3	1	CG0	0.000	
213	   C	0.568	3.363	11.333	C.3	1	CG0	0.000	
214	   C	2.259	3.732	9.612	C.3	1	CG0	0.000	
215	   C	-0.894	3.615	13.434	C.3	1	CG0	0.000	
216	   C	3.518	0.876	13.473	C.3	1	CG0	0.000	
217	   C	-4.049	-0.666	8.424	C.3	1	CG0	0.000	
218	   C	-0.840	4.365	8.801	C.3	1	CG0	0.000	
219	   C	4.259	1.296	8.834	C.3	1	CG0	0.000	
220	   C	1.079	-3.797	8.426	C.3	1	CG0	0.000	
221	   C	4.279	-2.162	8.081	C.3	1	CG0	0.000	
222	   C	2.678	4.481	8.411	C.3	1	CG0	0.000	
223	   C	-4.186	3.039	8.218	C.3	1	CG0	0.000	
224	   C	-2.487	-4.073	7.894	C.3	1	CG0	0.000	
225	   C	-3.446	-0.835	-9.525	C.3	1	CG0	0.000	
226	   C	-1.525	-2.390	-10.855	C.3	1	CG0	0.000	
227	   C	-3.003	-0.433	-10.799	C.3	1	CG0	0.000	
228	   C	-2.986	-2.028	-8.929	C.3	1	CG0	0.000	
229	   C	-1.971	-2.760	-9.569	C.3	1	CG0	0.000	
230	   C	-2.034	-1.218	-11.440	C.3	1	CG0	0.000	
231	   C	-3.521	0.856	-11.434	C.3	1	CG0	0.000	
232	   C	-0.467	-3.227	-11.569	C.3	1	CG0	0.000	
233	   C	-3.732	0.768	-12.957	C.3	1	CG0	0.000	
234	   C	-0.692	-3.373	-13.086	C.3	1	CG0	0.000	
235	   C	-2.655	2.030	-10.985	C.3	1	CG0	0.000	
236	   C	-1.009	4.129	-10.075	C.3	1	CG0	0.000	
237	   C	-1.549	2.462	-11.737	C.3	1	CG0	0.000	
238	   C	-2.914	2.663	-9.754	C.3	1	CG0	0.000	
239	   C	-2.111	3.723	-9.309	C.3	1	CG0	0.000	
240	   C	-0.731	3.524	-11.315	C.3	1	CG0	0.000	
241	   C	0.923	-2.727	-11.189	C.3	1	CG0	0.000	
242	   C	3.463	-1.792	-10.476	C.3	1	CG0	0.000	
243	   C	1.561	-1.723	-11.942	C.3	1	CG0	0.000	
244	   C	1.568	-3.242	-10.045	C.3	1	CG0	0.000	
245	   C	2.869	-2.826	-9.723	C.3	1	CG0	0.000	
246	   C	2.839	-1.252	-11.614	C.3	1	CG0	0.000	
247	   C	0.485	3.956	-12.128	C.3	1	CG0	0.000	
248	   C	3.522	-0.148	-12.421	C.3	1	CG0	0.000	
249	   C	1.709	3.170	-11.664	C.3	1	CG0	0.000	
250	   C	3.928	1.716	-10.737	C.3	1	CG0	0.000	
251	   C	2.458	3.628	-10.562	C.3	1	CG0	0.000	
252	   C	2.069	1.949	-12.258	C.3	1	CG0	0.000	
253	   C	3.180	1.212	-11.818	C.3	1	CG0	0.000	
254	   C	3.599	2.937	-10.125	C.3	1	CG0	0.000	
255	   C	3.296	-0.245	-13.940	C.3	1	CG0	0.000	
256	   C	0.269	3.947	-13.652	C.3	1	CG0	0.000	
257	   C	-0.115	-3.645	-8.469	C.3	1	CG0	0.000	
258	   C	4.635	-0.078	-9.445	C.3	1	CG0	0.000	
259	   C	1.024	4.670	-9.070	C.3	1	CG0	0.000	
260	   C	-3.768	1.104	-8.270	C.3	1	CG0	0.000	
261	   C	-2.401	4.456	-8.061	C.3	1	CG0	0.000	
262	   C	4.430	3.386	-8.981	C.3	1	CG0	0.000	
263	   C	3.701	-3.435	-8.658	C.3	1	CG0	0.000	
264	   C	-3.662	-2.475	-7.682	C.3	1	CG0	0.000	
265	   C	-9.860	-0.762	0.230	C.3	1	CG0	0.000	
266	   C	-9.972	0.386	-0.756	C.3	1	CG0	0.000	
267	   C	-0.378	9.657	-0.703	C.3	1	CG0	0.000	
268	   C	0.428	8.482	-0.143	C.3	1	CG0	0.000	
269	   C	9.677	0.529	0.299	C.3	1	CG0	0.000	
270	   C	9.306	-0.558	-0.706	C.3	1	CG0	0.000	
271	   C	-0.288	-9.496	-0.165	C.3	1	CG0	0.000	
272	   C	0.639	-9.096	0.983	C.3	1	CG0	0.000	
273	   C	-3.555	-4.803	6.009	C.3	1	CG0	0.000	
274	   C	-4.556	-4.366	4.941	C.3	1	CG0	0.000	
275	   C	-5.494	3.085	6.302	C.3	1	CG0	0.000	
276	   C	-4.768	3.714	5.112	C.3	1	CG0	0.000	
277	   C	4.612	-3.015	5.951	C.3	1	CG0	0.000	
278	   C	5.038	-4.473	6.123	C.3	1	CG0	0.000	
279	   C	3.660	4.825	6.337	C.3	1	CG0	0.000	
280	   C	5.182	4.966	6.302	C.3	1	CG0	0.000	
281	   C	-4.135	-3.740	-5.786	C.3	1	CG0	0.000	
282	   C	-4.849	-5.061	-6.092	C.3	1	CG0	0.000	
283	   C	-3.180	4.816	-5.910	C.3	1	CG0	0.000	
284	   C	-4.642	5.242	-6.059	C.3	1	CG0	0.000	
285	   C	4.442	-4.740	-6.948	C.3	1	CG0	0.000	
286	   C	4.036	-5.886	-6.024	C.3	1	CG0	0.000	
287	   C	5.111	4.739	-7.212	C.3	1	CG0	0.000	
288	   C	4.466	4.587	-5.827	C.3	1	CG0	0.000	
289	   O	-9.789	-4.391	-2.235	O.3	1	CG0	0.000	
290	   O	-10.176	-4.630	2.568	O.3	1	CG0	0.000	
291	   O	-5.481	-9.189	-4.349	O.3	1	CG0	0.000	
292	   O	-8.612	-5.559	-3.988	O.3	1	CG0	0.000	
293	   O	-4.965	-8.507	3.721	O.3	1	CG0	0.000	
294	   O	-8.832	-5.713	4.185	O.3	1	CG0	0.000	
295	   O	-4.182	-10.341	-2.724	O.3	1	CG0	0.000	
296	   O	-3.823	-9.786	2.044	O.3	1	CG0	0.000	
297	   O	-9.812	3.828	1.877	O.3	1	CG0	0.000	
298	   O	-10.097	4.479	-2.887	O.3	1	CG0	0.000	
299	   O	-5.176	8.297	3.996	O.3	1	CG0	0.000	
300	   O	-8.505	4.835	3.629	O.3	1	CG0	0.000	
301	   O	-5.277	8.981	-4.052	O.3	1	CG0	0.000	
302	   O	-8.831	5.779	-4.409	O.3	1	CG0	0.000	
303	   O	-4.021	9.731	2.476	O.3	1	CG0	0.000	
304	   O	-4.077	10.109	-2.313	O.3	1	CG0	0.000	
305	   O	9.472	-3.983	1.837	O.3	1	CG0	0.000	
306	   O	9.011	-4.721	-2.902	O.3	1	CG0	0.000	
307	   O	5.740	-8.772	4.817	O.3	1	CG0	0.000	
308	   O	8.597	-5.043	3.811	O.3	1	CG0	0.000	
309	   O	4.562	-9.720	-3.197	O.3	1	CG0	0.000	
310	   O	7.743	-6.250	-4.213	O.3	1	CG0	0.000	
311	   O	4.441	-10.238	3.478	O.3	1	CG0	0.000	
312	   O	3.755	-10.786	-1.229	O.3	1	CG0	0.000	
313	   O	4.122	9.632	2.800	O.3	1	CG0	0.000	
314	   O	3.776	9.902	-1.990	O.3	1	CG0	0.000	
315	   O	9.373	5.713	4.380	O.3	1	CG0	0.000	
316	   O	5.590	8.666	4.418	O.3	1	CG0	0.000	
317	   O	8.104	5.172	-3.710	O.3	1	CG0	0.000	
318	   O	4.837	8.706	-3.749	O.3	1	CG0	0.000	
319	   O	10.429	4.497	2.641	O.3	1	CG0	0.000	
320	   O	9.483	4.081	-2.072	O.3	1	CG0	0.000	
321	   O	-0.021	-4.471	9.072	O.3	1	CG0	0.000	
322	   O	-4.122	-1.950	9.078	O.3	1	CG0	0.000	
323	   O	4.835	0.156	9.500	O.3	1	CG0	0.000	
324	   O	2.287	-3.897	9.197	O.3	1	CG0	0.000	
325	   O	-2.118	4.448	9.460	O.3	1	CG0	0.000	
326	   O	-4.664	0.378	9.207	O.3	1	CG0	0.000	
327	   O	4.305	2.469	9.662	O.3	1	CG0	0.000	
328	   O	0.209	4.970	9.577	O.3	1	CG0	0.000	
329	   O	-4.374	-0.065	-8.862	O.3	1	CG0	0.000	
330	   O	-1.437	-3.887	-8.995	O.3	1	CG0	0.000	
331	   O	-0.221	5.155	-9.613	O.3	1	CG0	0.000	
332	   O	-4.025	2.287	-9.042	O.3	1	CG0	0.000	
333	   O	4.715	-1.337	-10.130	O.3	1	CG0	0.000	
334	   O	0.926	-4.200	-9.300	O.3	1	CG0	0.000	
335	   O	2.103	4.828	-9.999	O.3	1	CG0	0.000	
336	   O	5.023	1.013	-10.292	O.3	1	CG0	0.000	
337	   H	-10.677	-8.287	-0.056	 H	1	CG0	0.000	
338	   H	-10.794	-6.375	-3.257	 H	1	CG0	0.000	
339	   H	-10.916	-6.804	3.363	 H	1	CG0	0.000	
340	   H	-12.579	-7.697	-2.377	 H	1	CG0	0.000	
341	   H	-11.497	-9.028	-1.971	 H	1	CG0	0.000	
342	   H	-11.700	-8.551	-3.655	 H	1	CG0	0.000	
343	   H	-12.462	-8.291	2.290	 H	1	CG0	0.000	
344	   H	-11.486	-9.132	3.505	 H	1	CG0	0.000	
345	   H	-11.177	-9.387	1.788	 H	1	CG0	0.000	
346	   H	-9.351	-9.581	-1.995	 H	1	CG0	0.000	
347	   H	-9.029	-9.717	2.049	 H	1	CG0	0.000	
348	   H	-6.354	-11.293	-3.397	 H	1	CG0	0.000	
349	   H	-5.671	-10.821	3.191	 H	1	CG0	0.000	
350	   H	-7.721	-10.982	0.059	 H	1	CG0	0.000	
351	   H	-7.765	-11.854	3.726	 H	1	CG0	0.000	
352	   H	-6.882	-12.745	2.477	 H	1	CG0	0.000	
353	   H	-8.303	-11.796	2.048	 H	1	CG0	0.000	
354	   H	-8.625	-12.067	-3.405	 H	1	CG0	0.000	
355	   H	-8.836	-11.698	-1.695	 H	1	CG0	0.000	
356	   H	-7.654	-12.909	-2.187	 H	1	CG0	0.000	
357	   H	-8.060	-4.772	2.446	 H	1	CG0	0.000	
358	   H	-4.626	-7.836	1.733	 H	1	CG0	0.000	
359	   H	-4.609	-8.260	-2.647	 H	1	CG0	0.000	
360	   H	-7.787	-5.089	-2.084	 H	1	CG0	0.000	
361	   H	-3.529	-8.823	-3.911	 H	1	CG0	0.000	
362	   H	-8.736	-3.742	3.697	 H	1	CG0	0.000	
363	   H	-8.101	-3.758	-3.185	 H	1	CG0	0.000	
364	   H	-3.230	-7.982	2.788	 H	1	CG0	0.000	
365	   H	-5.828	-7.267	-6.011	 H	1	CG0	0.000	
366	   H	-2.104	-10.381	-1.511	 H	1	CG0	0.000	
367	   H	-6.647	-5.579	5.496	 H	1	CG0	0.000	
368	   H	-9.663	-2.721	1.452	 H	1	CG0	0.000	
369	   H	-10.646	7.901	0.034	 H	1	CG0	0.000	
370	   H	-10.686	5.756	3.089	 H	1	CG0	0.000	
371	   H	-10.965	6.660	-3.482	 H	1	CG0	0.000	
372	   H	-12.477	7.165	2.376	 H	1	CG0	0.000	
373	   H	-11.388	8.504	2.020	 H	1	CG0	0.000	
374	   H	-11.535	7.914	3.675	 H	1	CG0	0.000	
375	   H	-12.597	7.923	-2.272	 H	1	CG0	0.000	
376	   H	-11.711	8.935	-3.424	 H	1	CG0	0.000	
377	   H	-11.392	9.072	-1.694	 H	1	CG0	0.000	
378	   H	-9.251	9.052	2.111	 H	1	CG0	0.000	
379	   H	-9.260	9.558	-1.917	 H	1	CG0	0.000	
380	   H	-6.128	10.528	3.492	 H	1	CG0	0.000	
381	   H	-6.115	11.110	-3.127	 H	1	CG0	0.000	
382	   H	-7.832	10.671	0.171	 H	1	CG0	0.000	
383	   H	-8.333	11.996	-3.313	 H	1	CG0	0.000	
384	   H	-7.407	12.786	-2.028	 H	1	CG0	0.000	
385	   H	-8.690	11.651	-1.621	 H	1	CG0	0.000	
386	   H	-8.381	11.282	3.827	 H	1	CG0	0.000	
387	   H	-8.746	11.190	2.105	 H	1	CG0	0.000	
388	   H	-7.512	12.310	2.676	 H	1	CG0	0.000	
389	   H	-8.016	4.871	-2.671	 H	1	CG0	0.000	
390	   H	-4.603	8.045	-2.269	 H	1	CG0	0.000	
391	   H	-4.541	7.709	2.055	 H	1	CG0	0.000	
392	   H	-7.774	4.402	1.681	 H	1	CG0	0.000	
393	   H	-3.303	7.998	3.264	 H	1	CG0	0.000	
394	   H	-8.514	3.814	-3.980	 H	1	CG0	0.000	
395	   H	-8.137	3.043	2.733	 H	1	CG0	0.000	
396	   H	-3.384	8.549	-3.430	 H	1	CG0	0.000	
397	   H	-5.263	6.157	5.311	 H	1	CG0	0.000	
398	   H	-2.058	10.512	0.962	 H	1	CG0	0.000	
399	   H	-6.898	6.035	-5.943	 H	1	CG0	0.000	
400	   H	-10.144	2.419	-1.926	 H	1	CG0	0.000	
401	   H	10.343	-8.015	-0.068	 H	1	CG0	0.000	
402	   H	10.727	-5.788	2.897	 H	1	CG0	0.000	
403	   H	10.004	-6.860	-3.595	 H	1	CG0	0.000	
404	   H	12.485	-7.057	1.896	 H	1	CG0	0.000	
405	   H	11.477	-8.496	1.762	 H	1	CG0	0.000	
406	   H	11.859	-7.843	3.354	 H	1	CG0	0.000	
407	   H	11.919	-7.909	-2.616	 H	1	CG0	0.000	
408	   H	10.987	-9.042	-3.607	 H	1	CG0	0.000	
409	   H	10.940	-9.157	-1.849	 H	1	CG0	0.000	
410	   H	9.446	-9.227	2.228	 H	1	CG0	0.000	
411	   H	8.861	-9.854	-1.707	 H	1	CG0	0.000	
412	   H	6.731	-10.923	4.164	 H	1	CG0	0.000	
413	   H	5.711	-11.736	-2.339	 H	1	CG0	0.000	
414	   H	7.887	-11.121	0.630	 H	1	CG0	0.000	
415	   H	7.934	-12.457	-2.872	 H	1	CG0	0.000	
416	   H	7.318	-13.248	-1.412	 H	1	CG0	0.000	
417	   H	8.545	-11.990	-1.287	 H	1	CG0	0.000	
418	   H	9.056	-11.496	4.163	 H	1	CG0	0.000	
419	   H	9.156	-11.413	2.406	 H	1	CG0	0.000	
420	   H	8.113	-12.614	3.165	 H	1	CG0	0.000	
421	   H	7.031	-5.332	-2.436	 H	1	CG0	0.000	
422	   H	4.147	-8.699	-1.383	 H	1	CG0	0.000	
423	   H	4.745	-8.184	3.031	 H	1	CG0	0.000	
424	   H	7.507	-4.778	2.005	 H	1	CG0	0.000	
425	   H	3.752	-8.574	4.425	 H	1	CG0	0.000	
426	   H	7.254	-4.311	-3.847	 H	1	CG0	0.000	
427	   H	7.885	-3.343	2.943	 H	1	CG0	0.000	
428	   H	2.783	-9.343	-2.285	 H	1	CG0	0.000	
429	   H	5.901	-6.693	6.107	 H	1	CG0	0.000	
430	   H	2.213	-10.603	2.252	 H	1	CG0	0.000	
431	   H	4.018	-7.729	-4.390	 H	1	CG0	0.000	
432	   H	8.872	-2.608	-1.910	 H	1	CG0	0.000	
433	   H	7.649	10.823	0.170	 H	1	CG0	0.000	
434	   H	6.159	10.858	3.572	 H	1	CG0	0.000	
435	   H	5.767	10.855	-3.027	 H	1	CG0	0.000	
436	   H	7.236	12.698	2.481	 H	1	CG0	0.000	
437	   H	8.586	11.693	1.957	 H	1	CG0	0.000	
438	   H	8.292	11.932	3.678	 H	1	CG0	0.000	
439	   H	7.197	12.564	-2.138	 H	1	CG0	0.000	
440	   H	7.981	11.661	-3.444	 H	1	CG0	0.000	
441	   H	8.475	11.406	-1.773	 H	1	CG0	0.000	
442	   H	9.319	9.597	2.002	 H	1	CG0	0.000	
443	   H	8.975	9.270	-1.953	 H	1	CG0	0.000	
444	   H	11.328	6.701	3.228	 H	1	CG0	0.000	
445	   H	10.317	6.036	-3.276	 H	1	CG0	0.000	
446	   H	10.615	8.051	-0.168	 H	1	CG0	0.000	
447	   H	11.123	8.201	-3.868	 H	1	CG0	0.000	
448	   H	12.171	7.418	-2.675	 H	1	CG0	0.000	
449	   H	11.120	8.749	-2.194	 H	1	CG0	0.000	
450	   H	11.975	9.010	3.177	 H	1	CG0	0.000	
451	   H	11.428	9.205	1.513	 H	1	CG0	0.000	
452	   H	12.744	8.089	1.875	 H	1	CG0	0.000	
453	   H	4.188	7.817	-1.934	 H	1	CG0	0.000	
454	   H	7.487	4.717	-1.725	 H	1	CG0	0.000	
455	   H	8.328	4.780	2.784	 H	1	CG0	0.000	
456	   H	4.979	7.696	2.621	 H	1	CG0	0.000	
457	   H	9.093	3.741	3.974	 H	1	CG0	0.000	
458	   H	2.953	8.374	-3.055	 H	1	CG0	0.000	
459	   H	3.769	7.935	3.871	 H	1	CG0	0.000	
460	   H	7.729	3.373	-2.828	 H	1	CG0	0.000	
461	   H	7.500	5.676	6.018	 H	1	CG0	0.000	
462	   H	10.096	2.472	1.586	 H	1	CG0	0.000	
463	   H	4.895	6.871	-5.281	 H	1	CG0	0.000	
464	   H	1.996	9.629	1.490	 H	1	CG0	0.000	
465	   H	-1.070	-1.587	12.426	 H	1	CG0	0.000	
466	   H	1.097	-4.389	11.268	 H	1	CG0	0.000	
467	   H	-4.532	-0.907	11.253	 H	1	CG0	0.000	
468	   H	0.020	-4.223	13.400	 H	1	CG0	0.000	
469	   H	0.521	-2.547	13.607	 H	1	CG0	0.000	
470	   H	1.740	-3.815	13.501	 H	1	CG0	0.000	
471	   H	-3.906	-1.773	13.391	 H	1	CG0	0.000	
472	   H	-4.305	-0.050	13.472	 H	1	CG0	0.000	
473	   H	-2.628	-0.576	13.588	 H	1	CG0	0.000	
474	   H	1.713	-0.975	12.625	 H	1	CG0	0.000	
475	   H	-1.708	1.147	12.569	 H	1	CG0	0.000	
476	   H	4.590	1.217	11.731	 H	1	CG0	0.000	
477	   H	-1.051	4.712	11.681	 H	1	CG0	0.000	
478	   H	1.051	1.823	12.763	 H	1	CG0	0.000	
479	   H	-1.890	3.915	13.778	 H	1	CG0	0.000	
480	   H	-0.166	4.308	13.874	 H	1	CG0	0.000	
481	   H	-0.692	2.626	13.855	 H	1	CG0	0.000	
482	   H	4.216	0.107	13.824	 H	1	CG0	0.000	
483	   H	2.534	0.631	13.885	 H	1	CG0	0.000	
484	   H	3.824	1.832	13.914	 H	1	CG0	0.000	
485	   H	-3.027	-0.412	8.101	 H	1	CG0	0.000	
486	   H	-0.593	3.346	8.463	 H	1	CG0	0.000	
487	   H	3.257	1.086	8.426	 H	1	CG0	0.000	
488	   H	0.832	-2.764	8.135	 H	1	CG0	0.000	
489	   H	4.905	1.499	7.973	 H	1	CG0	0.000	
490	   H	-4.648	-0.755	7.511	 H	1	CG0	0.000	
491	   H	1.261	-4.344	7.495	 H	1	CG0	0.000	
492	   H	-0.930	4.970	7.892	 H	1	CG0	0.000	
493	   H	5.359	-1.923	8.081	 H	1	CG0	0.000	
494	   H	2.403	5.551	8.394	 H	1	CG0	0.000	
495	   H	-4.417	4.116	8.318	 H	1	CG0	0.000	
496	   H	-1.985	-5.056	7.812	 H	1	CG0	0.000	
497	   H	-1.649	-0.901	-12.404	 H	1	CG0	0.000	
498	   H	-4.542	1.028	-11.067	 H	1	CG0	0.000	
499	   H	-0.562	-4.266	-11.224	 H	1	CG0	0.000	
500	   H	-4.420	-0.049	-13.201	 H	1	CG0	0.000	
501	   H	-2.811	0.593	-13.519	 H	1	CG0	0.000	
502	   H	-4.171	1.699	-13.337	 H	1	CG0	0.000	
503	   H	-1.678	-3.809	-13.285	 H	1	CG0	0.000	
504	   H	0.063	-4.038	-13.521	 H	1	CG0	0.000	
505	   H	-0.642	-2.427	-13.633	 H	1	CG0	0.000	
506	   H	-1.309	1.949	-12.664	 H	1	CG0	0.000	
507	   H	1.042	-1.291	-12.793	 H	1	CG0	0.000	
508	   H	0.665	5.021	-11.926	 H	1	CG0	0.000	
509	   H	4.608	-0.289	-12.337	 H	1	CG0	0.000	
510	   H	1.456	1.555	-13.064	 H	1	CG0	0.000	
511	   H	3.634	-1.218	-14.315	 H	1	CG0	0.000	
512	   H	3.867	0.531	-14.462	 H	1	CG0	0.000	
513	   H	2.249	-0.130	-14.236	 H	1	CG0	0.000	
514	   H	-0.581	4.585	-13.921	 H	1	CG0	0.000	
515	   H	0.069	2.953	-14.062	 H	1	CG0	0.000	
516	   H	1.155	4.337	-14.166	 H	1	CG0	0.000	
517	   H	0.059	-2.584	-8.227	 H	1	CG0	0.000	
518	   H	3.665	0.084	-8.949	 H	1	CG0	0.000	
519	   H	0.939	3.648	-8.668	 H	1	CG0	0.000	
520	   H	-2.701	0.957	-8.040	 H	1	CG0	0.000	
521	   H	1.252	5.317	-8.216	 H	1	CG0	0.000	
522	   H	-0.063	-4.186	-7.518	 H	1	CG0	0.000	
523	   H	-4.272	1.248	-7.308	 H	1	CG0	0.000	
524	   H	5.380	-0.120	-8.643	 H	1	CG0	0.000	
525	   H	-2.202	5.543	-8.085	 H	1	CG0	0.000	
526	   H	5.319	2.775	-8.747	 H	1	CG0	0.000	
527	   H	4.722	-3.024	-8.558	 H	1	CG0	0.000	
528	   H	-4.618	-1.969	-7.454	 H	1	CG0	0.000	
529	   H	-10.683	-0.693	0.954	 H	1	CG0	0.000	
530	   H	-8.913	-0.669	0.779	 H	1	CG0	0.000	
531	   H	-10.915	0.295	-1.311	 H	1	CG0	0.000	
532	   H	-9.143	0.331	-1.473	 H	1	CG0	0.000	
533	   H	-0.044	9.875	-1.725	 H	1	CG0	0.000	
534	   H	-0.164	10.566	-0.125	 H	1	CG0	0.000	
535	   H	0.144	7.557	-0.658	 H	1	CG0	0.000	
536	   H	0.204	8.328	0.920	 H	1	CG0	0.000	
537	   H	10.719	0.386	0.613	 H	1	CG0	0.000	
538	   H	9.038	0.427	1.187	 H	1	CG0	0.000	
539	   H	9.935	-0.459	-1.600	 H	1	CG0	0.000	
540	   H	8.258	-0.434	-1.007	 H	1	CG0	0.000	
541	   H	-0.038	-10.517	-0.484	 H	1	CG0	0.000	
542	   H	-0.129	-8.827	-1.019	 H	1	CG0	0.000	
543	   H	0.355	-9.636	1.895	 H	1	CG0	0.000	
544	   H	0.516	-8.029	1.201	 H	1	CG0	0.000	
545	   H	-2.609	-5.078	5.525	 H	1	CG0	0.000	
546	   H	-3.941	-5.691	6.528	 H	1	CG0	0.000	
547	   H	-4.074	-3.665	4.250	 H	1	CG0	0.000	
548	   H	-5.390	-3.811	5.391	 H	1	CG0	0.000	
549	   H	-6.239	2.368	5.936	 H	1	CG0	0.000	
550	   H	-6.065	3.848	6.848	 H	1	CG0	0.000	
551	   H	-4.283	2.933	4.516	 H	1	CG0	0.000	
552	   H	-3.964	4.379	5.456	 H	1	CG0	0.000	
553	   H	4.082	-2.888	5.000	 H	1	CG0	0.000	
554	   H	5.487	-2.353	5.911	 H	1	CG0	0.000	
555	   H	4.139	-5.106	6.121	 H	1	CG0	0.000	
556	   H	5.527	-4.590	7.100	 H	1	CG0	0.000	
557	   H	3.304	4.401	5.391	 H	1	CG0	0.000	
558	   H	3.193	5.814	6.427	 H	1	CG0	0.000	
559	   H	5.633	3.995	6.060	 H	1	CG0	0.000	
560	   H	5.540	5.267	7.296	 H	1	CG0	0.000	
561	   H	-3.536	-3.843	-4.874	 H	1	CG0	0.000	
562	   H	-4.870	-2.951	-5.584	 H	1	CG0	0.000	
563	   H	-4.089	-5.838	-6.252	 H	1	CG0	0.000	
564	   H	-5.424	-4.957	-7.021	 H	1	CG0	0.000	
565	   H	-3.034	4.303	-4.953	 H	1	CG0	0.000	
566	   H	-2.515	5.689	-5.898	 H	1	CG0	0.000	
567	   H	-5.274	4.344	-6.019	 H	1	CG0	0.000	
568	   H	-4.784	5.707	-7.044	 H	1	CG0	0.000	
569	   H	5.325	-5.043	-7.527	 H	1	CG0	0.000	
570	   H	4.720	-3.870	-6.339	 H	1	CG0	0.000	
571	   H	3.622	-6.711	-6.616	 H	1	CG0	0.000	
572	   H	3.267	-5.542	-5.322	 H	1	CG0	0.000	
573	   H	6.015	4.117	-7.256	 H	1	CG0	0.000	
574	   H	5.456	5.769	-7.358	 H	1	CG0	0.000	
575	   H	4.159	3.547	-5.670	 H	1	CG0	0.000	
576	   H	3.556	5.194	-5.736	 H	1	CG0	0.000	
@<TRIPOS>BOND
1 25 27 1
2 25 28 1
3 25 289 1
4 26 29 1
5 26 30 1
6 26 32 1
7 27 30 1
8 27 31 1
9 28 29 1
10 28 64 1
11 29 290 1
12 30 337 1
13 31 33 1
14 31 35 1
15 31 338 1
16 32 34 1
17 32 41 1
18 32 339 1
19 33 340 1
20 33 341 1
21 33 342 1
22 34 343 1
23 34 344 1
24 34 345 1
25 35 37 1
26 35 38 1
27 36 39 1
28 36 40 1
29 36 291 1
30 37 40 1
31 37 346 1
32 38 39 1
33 38 292 1
34 39 61 1
35 40 47 1
36 41 43 1
37 41 44 1
38 42 45 1
39 42 46 1
40 42 293 1
41 43 46 1
42 43 347 1
43 44 45 1
44 44 294 1
45 45 63 1
46 46 48 1
47 47 49 1
48 47 56 1
49 47 348 1
50 48 53 1
51 48 55 1
52 48 349 1
53 49 51 1
54 49 52 1
55 50 53 1
56 50 54 1
57 50 296 1
58 51 54 1
59 51 295 1
60 52 53 1
61 52 350 1
62 54 62 1
63 55 351 1
64 55 352 1
65 55 353 1
66 56 354 1
67 56 355 1
68 56 356 1
69 57 357 1
70 57 362 1
71 58 358 1
72 58 364 1
73 59 359 1
74 59 361 1
75 60 360 1
76 60 363 1
77 17 61 1
78 61 365 1
79 8 62 1
80 62 366 1
81 9 63 1
82 63 367 1
83 2 64 1
84 64 368 1
85 65 67 1
86 65 68 1
87 65 297 1
88 66 69 1
89 66 70 1
90 66 72 1
91 67 70 1
92 67 71 1
93 68 69 1
94 68 104 1
95 69 298 1
96 70 369 1
97 71 73 1
98 71 75 1
99 71 370 1
100 72 74 1
101 72 81 1
102 72 371 1
103 73 372 1
104 73 373 1
105 73 374 1
106 74 375 1
107 74 376 1
108 74 377 1
109 75 77 1
110 75 78 1
111 76 79 1
112 76 80 1
113 76 299 1
114 77 80 1
115 77 378 1
116 78 79 1
117 78 300 1
118 79 101 1
119 80 87 1
120 81 83 1
121 81 84 1
122 82 85 1
123 82 86 1
124 82 301 1
125 83 86 1
126 83 379 1
127 84 85 1
128 84 302 1
129 85 103 1
130 86 88 1
131 87 89 1
132 87 96 1
133 87 380 1
134 88 93 1
135 88 95 1
136 88 381 1
137 89 91 1
138 89 92 1
139 90 93 1
140 90 94 1
141 90 304 1
142 91 94 1
143 91 303 1
144 92 93 1
145 92 382 1
146 94 102 1
147 95 383 1
148 95 384 1
149 95 385 1
150 96 386 1
151 96 387 1
152 96 388 1
153 97 389 1
154 97 394 1
155 98 390 1
156 98 396 1
157 99 391 1
158 99 393 1
159 100 392 1
160 100 395 1
161 11 101 1
162 101 397 1
163 4 102 1
164 102 398 1
165 19 103 1
166 103 399 1
167 1 104 1
168 104 400 1
169 105 107 1
170 105 108 1
171 105 305 1
172 106 109 1
173 106 110 1
174 106 112 1
175 107 110 1
176 107 111 1
177 108 109 1
178 108 144 1
179 109 306 1
180 110 401 1
181 111 113 1
182 111 115 1
183 111 402 1
184 112 114 1
185 112 121 1
186 112 403 1
187 113 404 1
188 113 405 1
189 113 406 1
190 114 407 1
191 114 408 1
192 114 409 1
193 115 117 1
194 115 118 1
195 116 119 1
196 116 120 1
197 116 307 1
198 117 120 1
199 117 410 1
200 118 119 1
201 118 308 1
202 119 141 1
203 120 127 1
204 121 123 1
205 121 124 1
206 122 125 1
207 122 126 1
208 122 309 1
209 123 126 1
210 123 411 1
211 124 125 1
212 124 310 1
213 125 143 1
214 126 128 1
215 127 129 1
216 127 136 1
217 127 412 1
218 128 133 1
219 128 135 1
220 128 413 1
221 129 131 1
222 129 132 1
223 130 133 1
224 130 134 1
225 130 312 1
226 131 134 1
227 131 311 1
228 132 133 1
229 132 414 1
230 134 142 1
231 135 415 1
232 135 416 1
233 135 417 1
234 136 418 1
235 136 419 1
236 136 420 1
237 137 421 1
238 137 426 1
239 138 422 1
240 138 428 1
241 139 423 1
242 139 425 1
243 140 424 1
244 140 427 1
245 13 141 1
246 141 429 1
247 7 142 1
248 142 430 1
249 21 143 1
250 143 431 1
251 5 144 1
252 144 432 1
253 145 147 1
254 145 148 1
255 145 313 1
256 146 149 1
257 146 150 1
258 146 152 1
259 147 150 1
260 147 151 1
261 148 149 1
262 148 184 1
263 149 314 1
264 150 433 1
265 151 153 1
266 151 155 1
267 151 434 1
268 152 154 1
269 152 161 1
270 152 435 1
271 153 436 1
272 153 437 1
273 153 438 1
274 154 439 1
275 154 440 1
276 154 441 1
277 155 157 1
278 155 158 1
279 156 159 1
280 156 160 1
281 156 315 1
282 157 160 1
283 157 442 1
284 158 159 1
285 158 316 1
286 159 181 1
287 160 167 1
288 161 163 1
289 161 164 1
290 162 165 1
291 162 166 1
292 162 317 1
293 163 166 1
294 163 443 1
295 164 165 1
296 164 318 1
297 165 183 1
298 166 168 1
299 167 169 1
300 167 176 1
301 167 444 1
302 168 173 1
303 168 175 1
304 168 445 1
305 169 171 1
306 169 172 1
307 170 173 1
308 170 174 1
309 170 320 1
310 171 174 1
311 171 319 1
312 172 173 1
313 172 446 1
314 174 182 1
315 175 447 1
316 175 448 1
317 175 449 1
318 176 450 1
319 176 451 1
320 176 452 1
321 177 453 1
322 177 458 1
323 178 454 1
324 178 460 1
325 179 455 1
326 179 457 1
327 180 456 1
328 180 459 1
329 15 181 1
330 181 461 1
331 6 182 1
332 182 462 1
333 23 183 1
334 183 463 1
335 3 184 1
336 184 464 1
337 185 187 1
338 185 188 1
339 185 321 1
340 186 189 1
341 186 190 1
342 186 192 1
343 187 190 1
344 187 191 1
345 188 189 1
346 188 224 1
347 189 322 1
348 190 465 1
349 191 193 1
350 191 195 1
351 191 466 1
352 192 194 1
353 192 201 1
354 192 467 1
355 193 468 1
356 193 469 1
357 193 470 1
358 194 471 1
359 194 472 1
360 194 473 1
361 195 197 1
362 195 198 1
363 196 199 1
364 196 200 1
365 196 323 1
366 197 200 1
367 197 474 1
368 198 199 1
369 198 324 1
370 199 221 1
371 200 207 1
372 201 203 1
373 201 204 1
374 202 205 1
375 202 206 1
376 202 325 1
377 203 206 1
378 203 475 1
379 204 205 1
380 204 326 1
381 205 223 1
382 206 208 1
383 207 209 1
384 207 216 1
385 207 476 1
386 208 213 1
387 208 215 1
388 208 477 1
389 209 211 1
390 209 212 1
391 210 213 1
392 210 214 1
393 210 328 1
394 211 214 1
395 211 327 1
396 212 213 1
397 212 478 1
398 214 222 1
399 215 479 1
400 215 480 1
401 215 481 1
402 216 482 1
403 216 483 1
404 216 484 1
405 217 485 1
406 217 490 1
407 218 486 1
408 218 492 1
409 219 487 1
410 219 489 1
411 220 488 1
412 220 491 1
413 14 221 1
414 221 493 1
415 16 222 1
416 222 494 1
417 12 223 1
418 223 495 1
419 10 224 1
420 224 496 1
421 225 227 1
422 225 228 1
423 225 329 1
424 226 229 1
425 226 230 1
426 226 232 1
427 227 230 1
428 227 231 1
429 228 229 1
430 228 264 1
431 229 330 1
432 230 497 1
433 231 233 1
434 231 235 1
435 231 498 1
436 232 234 1
437 232 241 1
438 232 499 1
439 233 500 1
440 233 501 1
441 233 502 1
442 234 503 1
443 234 504 1
444 234 505 1
445 235 237 1
446 235 238 1
447 236 239 1
448 236 240 1
449 236 331 1
450 237 240 1
451 237 506 1
452 238 239 1
453 238 332 1
454 239 261 1
455 240 247 1
456 241 243 1
457 241 244 1
458 242 245 1
459 242 246 1
460 242 333 1
461 243 246 1
462 243 507 1
463 244 245 1
464 244 334 1
465 245 263 1
466 246 248 1
467 247 249 1
468 247 256 1
469 247 508 1
470 248 253 1
471 248 255 1
472 248 509 1
473 249 251 1
474 249 252 1
475 250 253 1
476 250 254 1
477 250 336 1
478 251 254 1
479 251 335 1
480 252 253 1
481 252 510 1
482 254 262 1
483 255 511 1
484 255 512 1
485 255 513 1
486 256 514 1
487 256 515 1
488 256 516 1
489 257 517 1
490 257 522 1
491 258 518 1
492 258 524 1
493 259 519 1
494 259 521 1
495 260 520 1
496 260 523 1
497 20 261 1
498 261 525 1
499 24 262 1
500 262 526 1
501 22 263 1
502 263 527 1
503 18 264 1
504 264 528 1
505 2 265 1
506 265 266 1
507 265 530 1
508 1 266 1
509 266 531 1
510 266 532 1
511 4 267 1
512 267 268 1
513 267 534 1
514 3 268 1
515 268 535 1
516 268 536 1
517 6 269 1
518 269 270 1
519 269 538 1
520 5 270 1
521 270 539 1
522 270 540 1
523 8 271 1
524 271 272 1
525 271 542 1
526 7 272 1
527 272 543 1
528 272 544 1
529 10 273 1
530 273 274 1
531 273 546 1
532 9 274 1
533 274 547 1
534 274 548 1
535 12 275 1
536 275 276 1
537 275 550 1
538 11 276 1
539 276 551 1
540 276 552 1
541 14 277 1
542 277 278 1
543 277 554 1
544 13 278 1
545 278 555 1
546 278 556 1
547 16 279 1
548 279 280 1
549 279 558 1
550 15 280 1
551 280 559 1
552 280 560 1
553 18 281 1
554 281 282 1
555 281 562 1
556 17 282 1
557 282 563 1
558 282 564 1
559 20 283 1
560 283 284 1
561 283 566 1
562 19 284 1
563 284 567 1
564 284 568 1
565 22 285 1
566 285 286 1
567 285 570 1
568 21 286 1
569 286 571 1
570 286 572 1
571 24 287 1
572 287 288 1
573 287 574 1
574 23 288 1
575 288 575 1
576 288 576 1
577 60 289 1
578 57 290 1
579 59 291 1
580 60 292 1
581 58 293 1
582 57 294 1
583 59 295 1
584 58 296 1
585 100 297 1
586 97 298 1
587 99 299 1
588 100 300 1
589 98 301 1
590 97 302 1
591 99 303 1
592 98 304 1
593 140 305 1
594 137 306 1
595 139 307 1
596 140 308 1
597 138 309 1
598 137 310 1
599 139 311 1
600 138 312 1
601 180 313 1
602 177 314 1
603 179 315 1
604 180 316 1
605 178 317 1
606 177 318 1
607 179 319 1
608 178 320 1
609 220 321 1
610 217 322 1
611 219 323 1
612 220 324 1
613 218 325 1
614 217 326 1
615 219 327 1
616 218 328 1
617 260 329 1
618 257 330 1
619 259 331 1
620 260 332 1
621 258 333 1
622 257 334 1
623 259 335 1
624 258 336 1
625 265 529 1
626 267 533 1
627 269 537 1
628 271 541 1
629 273 545 1
630 275 549 1
631 277 553 1
632 279 557 1
633 281 561 1
634 283 565 1
635 285 569 1
636 287 573 1
@<TRIPOS>SUBSTRUCTURE
1	CG0	1	GROUP	1 A	CG
@<TRIPOS>MOLECULE
cavity
1691 0 1                
SMALL
USER_CHARGES
@<TRIPOS>ATOM
1	   D	0.003	0.499	-10.499	 H	1	CV1	0.000	
2	   D	0.003	-0.501	-9.499	 H	1	CV1	0.000	
3	   D	1.003	-0.501	-9.499	 H	1	CV1	0.000	
4	   D	0.003	0.499	-9.499	 H	1	CV1	0.000	
5	   D	1.003	0.499	-9.499	 H	1	CV1	0.000	
6	   D	0.003	1.499	-9.499	 H	1	CV1	0.000	
7	   D	1.003	1.499	-9.499	 H	1	CV1	0.000	
8	   D	1.003	-0.501	-8.499	 H	1	CV1	0.000	
9	   D	0.003	0.499	-8.499	 H	1	CV1	0.000	
10	   D	1.003	0.499	-8.499	 H	1	CV1	0.000	
11	   D	0.003	1.499	-8.499	 H	1	CV1	0.000	
12	   D	2.003	-1.501	-7.499	 H	1	CV1	0.000	
13	   D	-0.997	-0.501	-7.499	 H	1	CV1	0.000	
14	   D	0.003	-0.501	-7.499	 H	1	CV1	0.000	
15	   D	1.003	-0.501	-7.499	 H	1	CV1	0.000	
16	   D	2.003	-0.501	-7.499	 H	1	CV1	0.000	
17	   D	0.003	0.499	-7.499	 H	1	CV1	0.000	
18	   D	1.003	0.499	-7.499	 H	1	CV1	0.000	
19	   D	2.003	0.499	-7.499	 H	1	CV1	0.000	
20	   D	0.003	1.499	-7.499	 H	1	CV1	0.000	
21	   D	1.003	1.499	-7.499	 H	1	CV1	0.000	
22	   D	2.003	1.499	-7.499	 H	1	CV1	0.000	
23	   D	2.003	-2.501	-6.499	 H	1	CV1	0.000	
24	   D	-0.997	-1.501	-6.499	 H	1	CV1	0.000	
25	   D	1.003	-1.501	-6.499	 H	1	CV1	0.000	
26	   D	2.003	-1.501	-6.499	 H	1	CV1	0.000	
27	   D	3.003	-1.501	-6.499	 H	1	CV1	0.000	
28	   D	4.003	-1.501	-6.499	 H	1	CV1	0.000	
29	   D	5.003	-1.501	-6.499	 H	1	CV1	0.000	
30	   D	-1.997	-0.501	-6.499	 H	1	CV1	0.000	
31	   D	-0.997	-0.501	-6.499	 H	1	CV1	0.000	
32	   D	0.003	-0.501	-6.499	 H	1	CV1	0.000	
33	   D	1.003	-0.501	-6.499	 H	1	CV1	0.000	
34	   D	2.003	-0.501	-6.499	 H	1	CV1	0.000	
35	   D	3.003	-0.501	-6.499	 H	1	CV1	0.000	
36	   D	4.003	-0.501	-6.499	 H	1	CV1	0.000	
37	   D	5.003	-0.501	-6.499	 H	1	CV1	0.000	
38	   D	-0.997	0.499	-6.499	 H	1	CV1	0.000	
39	   D	0.003	0.499	-6.499	 H	1	CV1	0.000	
40	   D	1.003	0.499	-6.499	 H	1	CV1	0.000	
41	   D	2.003	0.499	-6.499	 H	1	CV1	0.000	
42	   D	3.003	0.499	-6.499	 H	1	CV1	0.000	
43	   D	4.003	0.499	-6.499	 H	1	CV1	0.000	
44	   D	5.003	0.499	-6.499	 H	1	CV1	0.000	
45	   D	-0.997	1.499	-6.499	 H	1	CV1	0.000	
46	   D	0.003	1.499	-6.499	 H	1	CV1	0.000	
47	   D	1.003	1.499	-6.499	 H	1	CV1	0.000	
48	   D	2.003	1.499	-6.499	 H	1	CV1	0.000	
49	   D	3.003	1.499	-6.499	 H	1	CV1	0.000	
50	   D	4.003	1.499	-6.499	 H	1	CV1	0.000	
51	   D	5.003	1.499	-6.499	 H	1	CV1	0.000	
52	   D	6.003	1.499	-6.499	 H	1	CV1	0.000	
53	   D	0.003	2.499	-6.499	 H	1	CV1	0.000	
54	   D	1.003	2.499	-6.499	 H	1	CV1	0.000	
55	   D	2.003	2.499	-6.499	 H	1	CV1	0.000	
56	   D	0.003	3.499	-6.499	 H	1	CV1	0.000	
57	   D	2.003	3.499	-6.499	 H	1	CV1	0.000	
58	   D	0.003	4.499	-6.499	 H	1	CV1	0.000	
59	   D	-1.997	-5.501	-5.499	 H	1	CV1	0.000	
60	   D	-0.997	-5.501	-5.499	 H	1	CV1	0.000	
61	   D	0.003	-5.501	-5.499	 H	1	CV1	0.000	
62	   D	1.003	-5.501	-5.499	 H	1	CV1	0.000	
63	   D	-0.997	-4.501	-5.499	 H	1	CV1	0.000	
64	   D	1.003	-4.501	-5.499	 H	1	CV1	0.000	
65	   D	-0.997	-3.501	-5.499	 H	1	CV1	0.000	
66	   D	1.003	-3.501	-5.499	 H	1	CV1	0.000	
67	   D	2.003	-3.501	-5.499	 H	1	CV1	0.000	
68	   D	-0.997	-2.501	-5.499	 H	1	CV1	0.000	
69	   D	0.003	-2.501	-5.499	 H	1	CV1	0.000	
70	   D	1.003	-2.501	-5.499	 H	1	CV1	0.000	
71	   D	2.003	-2.501	-5.499	 H	1	CV1	0.000	
72	   D	3.003	-2.501	-5.499	 H	1	CV1	0.000	
73	   D	-1.997	-1.501	-5.499	 H	1	CV1	0.000	
74	   D	-0.997	-1.501	-5.499	 H	1	CV1	0.000	
75	   D	0.003	-1.501	-5.499	 H	1	CV1	0.000	
76	   D	1.003	-1.501	-5.499	 H	1	CV1	0.000	
77	   D	2.003	-1.501	-5.499	 H	1	CV1	0.000	
78	   D	3.003	-1.501	-5.499	 H	1	CV1	0.000	
79	   D	4.003	-1.501	-5.499	 H	1	CV1	0.000	
80	   D	5.003	-1.501	-5.499	 H	1	CV1	0.000	
81	   D	6.003	-1.501	-5.499	 H	1	CV1	0.000	
82	   D	-4.997	-0.501	-5.499	 H	1	CV1	0.000	
83	   D	-3.997	-0.501	-5.499	 H	1	CV1	0.000	
84	   D	-2.997	-0.501	-5.499	 H	1	CV1	0.000	
85	   D	-1.997	-0.501	-5.499	 H	1	CV1	0.000	
86	   D	-0.997	-0.501	-5.499	 H	1	CV1	0.000	
87	   D	0.003	-0.501	-5.499	 H	1	CV1	0.000	
88	   D	1.003	-0.501	-5.499	 H	1	CV1	0.000	
89	   D	2.003	-0.501	-5.499	 H	1	CV1	0.000	
90	   D	3.003	-0.501	-5.499	 H	1	CV1	0.000	
91	   D	4.003	-0.501	-5.499	 H	1	CV1	0.000	
92	   D	5.003	-0.501	-5.499	 H	1	CV1	0.000	
93	   D	6.003	-0.501	-5.499	 H	1	CV1	0.000	
94	   D	-2.997	0.499	-5.499	 H	1	CV1	0.000	
95	   D	-1.997	0.499	-5.499	 H	1	CV1	0.000	
96	   D	-0.997	0.499	-5.499	 H	1	CV1	0.000	
97	   D	0.003	0.499	-5.499	 H	1	CV1	0.000	
98	   D	1.003	0.499	-5.499	 H	1	CV1	0.000	
99	   D	2.003	0.499	-5.499	 H	1	CV1	0.000	
100	   D	3.003	0.499	-5.499	 H	1	CV1	0.000	
101	   D	4.003	0.499	-5.499	 H	1	CV1	0.000	
102	   D	5.003	0.499	-5.499	 H	1	CV1	0.000	
103	   D	6.003	0.499	-5.499	 H	1	CV1	0.000	
104	   D	-5.997	1.499	-5.499	 H	1	CV1	0.000	
105	   D	-2.997	1.499	-5.499	 H	1	CV1	0.000	
106	   D	-1.997	1.499	-5.499	 H	1	CV1	0.000	
107	   D	-0.997	1.499	-5.499	 H	1	CV1	0.000	
108	   D	0.003	1.499	-5.499	 H	1	CV1	0.000	
109	   D	1.003	1.499	-5.499	 H	1	CV1	0.000	
110	   D	2.003	1.499	-5.499	 H	1	CV1	0.000	
111	   D	3.003	1.499	-5.499	 H	1	CV1	0.000	
112	   D	5.003	1.499	-5.499	 H	1	CV1	0.000	
113	   D	6.003	1.499	-5.499	 H	1	CV1	0.000	
114	   D	-0.997	2.499	-5.499	 H	1	CV1	0.000	
115	   D	0.003	2.499	-5.499	 H	1	CV1	0.000	
116	   D	1.003	2.499	-5.499	 H	1	CV1	0.000	
117	   D	2.003	2.499	-5.499	 H	1	CV1	0.000	
118	   D	0.003	3.499	-5.499	 H	1	CV1	0.000	
119	   D	1.003	3.499	-5.499	 H	1	CV1	0.000	
120	   D	0.003	4.499	-5.499	 H	1	CV1	0.000	
121	   D	1.003	4.499	-5.499	 H	1	CV1	0.000	
122	   D	0.003	5.499	-5.499	 H	1	CV1	0.000	
123	   D	1.003	5.499	-5.499	 H	1	CV1	0.000	
124	   D	-1.997	-6.501	-4.499	 H	1	CV1	0.000	
125	   D	-0.997	-6.501	-4.499	 H	1	CV1	0.000	
126	   D	0.003	-6.501	-4.499	 H	1	CV1	0.000	
127	   D	1.003	-6.501	-4.499	 H	1	CV1	0.000	
128	   D	-1.997	-5.501	-4.499	 H	1	CV1	0.000	
129	   D	-0.997	-5.501	-4.499	 H	1	CV1	0.000	
130	   D	0.003	-5.501	-4.499	 H	1	CV1	0.000	
131	   D	1.003	-5.501	-4.499	 H	1	CV1	0.000	
132	   D	-0.997	-4.501	-4.499	 H	1	CV1	0.000	
133	   D	0.003	-4.501	-4.499	 H	1	CV1	0.000	
134	   D	1.003	-4.501	-4.499	 H	1	CV1	0.000	
135	   D	-0.997	-3.501	-4.499	 H	1	CV1	0.000	
136	   D	0.003	-3.501	-4.499	 H	1	CV1	0.000	
137	   D	1.003	-3.501	-4.499	 H	1	CV1	0.000	
138	   D	2.003	-3.501	-4.499	 H	1	CV1	0.000	
139	   D	3.003	-3.501	-4.499	 H	1	CV1	0.000	
140	   D	-0.997	-2.501	-4.499	 H	1	CV1	0.000	
141	   D	0.003	-2.501	-4.499	 H	1	CV1	0.000	
142	   D	1.003	-2.501	-4.499	 H	1	CV1	0.000	
143	   D	2.003	-2.501	-4.499	 H	1	CV1	0.000	
144	   D	3.003	-2.501	-4.499	 H	1	CV1	0.000	
145	   D	4.003	-2.501	-4.499	 H	1	CV1	0.000	
146	   D	5.003	-2.501	-4.499	 H	1	CV1	0.000	
147	   D	6.003	-2.501	-4.499	 H	1	CV1	0.000	
148	   D	-2.997	-1.501	-4.499	 H	1	CV1	0.000	
149	   D	-1.997	-1.501	-4.499	 H	1	CV1	0.000	
150	   D	-0.997	-1.501	-4.499	 H	1	CV1	0.000	
151	   D	0.003	-1.501	-4.499	 H	1	CV1	0.000	
152	   D	1.003	-1.501	-4.499	 H	1	CV1	0.000	
153	   D	2.003	-1.501	-4.499	 H	1	CV1	0.000	
154	   D	3.003	-1.501	-4.499	 H	1	CV1	0.000	
155	   D	4.003	-1.501	-4.499	 H	1	CV1	0.000	
156	   D	5.003	-1.501	-4.499	 H	1	CV1	0.000	
157	   D	6.003	-1.501	-4.499	 H	1	CV1	0.000	
158	   D	-5.997	-0.501	-4.499	 H	1	CV1	0.000	
159	   D	-4.997	-0.501	-4.499	 H	1	CV1	0.000	
160	   D	-3.997	-0.501	-4.499	 H	1	CV1	0.000	
161	   D	-2.997	-0.501	-4.499	 H	1	CV1	0.000	
162	   D	-1.997	-0.501	-4.499	 H	1	CV1	0.000	
163	   D	-0.997	-0.501	-4.499	 H	1	CV1	0.000	
164	   D	0.003	-0.501	-4.499	 H	1	CV1	0.000	
165	   D	1.003	-0.501	-4.499	 H	1	CV1	0.000	
166	   D	2.003	-0.501	-4.499	 H	1	CV1	0.000	
167	   D	3.003	-0.501	-4.499	 H	1	CV1	0.000	
168	   D	4.003	-0.501	-4.499	 H	1	CV1	0.000	
169	   D	5.003	-0.501	-4.499	 H	1	CV1	0.000	
170	   D	6.003	-0.501	-4.499	 H	1	CV1	0.000	
171	   D	-5.997	0.499	-4.499	 H	1	CV1	0.000	
172	   D	-4.997	0.499	-4.499	 H	1	CV1	0.000	
173	   D	-3.997	0.499	-4.499	 H	1	CV1	0.000	
174	   D	-2.997	0.499	-4.499	 H	1	CV1	0.000	
175	   D	-1.997	0.499	-4.499	 H	1	CV1	0.000	
176	   D	-0.997	0.499	-4.499	 H	1	CV1	0.000	
177	   D	0.003	0.499	-4.499	 H	1	CV1	0.000	
178	   D	1.003	0.499	-4.499	 H	1	CV1	0.000	
179	   D	2.003	0.499	-4.499	 H	1	CV1	0.000	
180	   D	3.003	0.499	-4.499	 H	1	CV1	0.000	
181	   D	4.003	0.499	-4.499	 H	1	CV1	0.000	
182	   D	5.003	0.499	-4.499	 H	1	CV1	0.000	
183	   D	6.003	0.499	-4.499	 H	1	CV1	0.000	
184	   D	-5.997	1.499	-4.499	 H	1	CV1	0.000	
185	   D	-4.997	1.499	-4.499	 H	1	CV1	0.000	
186	   D	-3.997	1.499	-4.499	 H	1	CV1	0.000	
187	   D	-2.997	1.499	-4.499	 H	1	CV1	0.000	
188	   D	-1.997	1.499	-4.499	 H	1	CV1	0.000	
189	   D	-0.997	1.499	-4.499	 H	1	CV1	0.000	
190	   D	0.003	1.499	-4.499	 H	1	CV1	0.000	
191	   D	1.003	1.499	-4.499	 H	1	CV1	0.000	
192	   D	2.003	1.499	-4.499	 H	1	CV1	0.000	
193	   D	3.003	1.499	-4.499	 H	1	CV1	0.000	
194	   D	4.003	1.499	-4.499	 H	1	CV1	0.000	
195	   D	5.003	1.499	-4.499	 H	1	CV1	0.000	
196	   D	6.003	1.499	-4.499	 H	1	CV1	0.000	
197	   D	7.003	1.499	-4.499	 H	1	CV1	0.000	
198	   D	-5.997	2.499	-4.499	 H	1	CV1	0.000	
199	   D	-4.997	2.499	-4.499	 H	1	CV1	0.000	
200	   D	-0.997	2.499	-4.499	 H	1	CV1	0.000	
201	   D	0.003	2.499	-4.499	 H	1	CV1	0.000	
202	   D	1.003	2.499	-4.499	 H	1	CV1	0.000	
203	   D	2.003	2.499	-4.499	 H	1	CV1	0.000	
204	   D	-0.997	3.499	-4.499	 H	1	CV1	0.000	
205	   D	0.003	3.499	-4.499	 H	1	CV1	0.000	
206	   D	1.003	3.499	-4.499	 H	1	CV1	0.000	
207	   D	2.003	3.499	-4.499	 H	1	CV1	0.000	
208	   D	0.003	4.499	-4.499	 H	1	CV1	0.000	
209	   D	1.003	4.499	-4.499	 H	1	CV1	0.000	
210	   D	0.003	5.499	-4.499	 H	1	CV1	0.000	
211	   D	1.003	5.499	-4.499	 H	1	CV1	0.000	
212	   D	-0.997	6.499	-4.499	 H	1	CV1	0.000	
213	   D	0.003	6.499	-4.499	 H	1	CV1	0.000	
214	   D	1.003	6.499	-4.499	 H	1	CV1	0.000	
215	   D	2.003	6.499	-4.499	 H	1	CV1	0.000	
216	   D	-0.997	-7.501	-3.499	 H	1	CV1	0.000	
217	   D	0.003	-7.501	-3.499	 H	1	CV1	0.000	
218	   D	1.003	-7.501	-3.499	 H	1	CV1	0.000	
219	   D	2.003	-7.501	-3.499	 H	1	CV1	0.000	
220	   D	-2.997	-6.501	-3.499	 H	1	CV1	0.000	
221	   D	-1.997	-6.501	-3.499	 H	1	CV1	0.000	
222	   D	-0.997	-6.501	-3.499	 H	1	CV1	0.000	
223	   D	0.003	-6.501	-3.499	 H	1	CV1	0.000	
224	   D	1.003	-6.501	-3.499	 H	1	CV1	0.000	
225	   D	2.003	-6.501	-3.499	 H	1	CV1	0.000	
226	   D	-2.997	-5.501	-3.499	 H	1	CV1	0.000	
227	   D	-1.997	-5.501	-3.499	 H	1	CV1	0.000	
228	   D	-0.997	-5.501	-3.499	 H	1	CV1	0.000	
229	   D	0.003	-5.501	-3.499	 H	1	CV1	0.000	
230	   D	1.003	-5.501	-3.499	 H	1	CV1	0.000	
231	   D	2.003	-5.501	-3.499	 H	1	CV1	0.000	
232	   D	-0.997	-4.501	-3.499	 H	1	CV1	0.000	
233	   D	0.003	-4.501	-3.499	 H	1	CV1	0.000	
234	   D	1.003	-4.501	-3.499	 H	1	CV1	0.000	
235	   D	2.003	-4.501	-3.499	 H	1	CV1	0.000	
236	   D	4.003	-4.501	-3.499	 H	1	CV1	0.000	
237	   D	5.003	-4.501	-3.499	 H	1	CV1	0.000	
238	   D	-0.997	-3.501	-3.499	 H	1	CV1	0.000	
239	   D	0.003	-3.501	-3.499	 H	1	CV1	0.000	
240	   D	1.003	-3.501	-3.499	 H	1	CV1	0.000	
241	   D	2.003	-3.501	-3.499	 H	1	CV1	0.000	
242	   D	3.003	-3.501	-3.499	 H	1	CV1	0.000	
243	   D	4.003	-3.501	-3.499	 H	1	CV1	0.000	
244	   D	5.003	-3.501	-3.499	 H	1	CV1	0.000	
245	   D	-5.997	-2.501	-3.499	 H	1	CV1	0.000	
246	   D	-1.997	-2.501	-3.499	 H	1	CV1	0.000	
247	   D	-0.997	-2.501	-3.499	 H	1	CV1	0.000	
248	   D	0.003	-2.501	-3.499	 H	1	CV1	0.000	
249	   D	1.003	-2.501	-3.499	 H	1	CV1	0.000	
250	   D	2.003	-2.501	-3.499	 H	1	CV1	0.000	
251	   D	3.003	-2.501	-3.499	 H	1	CV1	0.000	
252	   D	4.003	-2.501	-3.499	 H	1	CV1	0.000	
253	   D	5.003	-2.501	-3.499	 H	1	CV1	0.000	
254	   D	6.003	-2.501	-3.499	 H	1	CV1	0.000	
255	   D	-7.997	-1.501	-3.499	 H	1	CV1	0.000	
256	   D	-6.997	-1.501	-3.499	 H	1	CV1	0.000	
257	   D	-5.997	-1.501	-3.499	 H	1	CV1	0.000	
258	   D	-4.997	-1.501	-3.499	 H	1	CV1	0.000	
259	   D	-3.997	-1.501	-3.499	 H	1	CV1	0.000	
260	   D	-2.997	-1.501	-3.499	 H	1	CV1	0.000	
261	   D	-1.997	-1.501	-3.499	 H	1	CV1	0.000	
262	   D	-0.997	-1.501	-3.499	 H	1	CV1	0.000	
263	   D	0.003	-1.501	-3.499	 H	1	CV1	0.000	
264	   D	1.003	-1.501	-3.499	 H	1	CV1	0.000	
265	   D	2.003	-1.501	-3.499	 H	1	CV1	0.000	
266	   D	3.003	-1.501	-3.499	 H	1	CV1	0.000	
267	   D	4.003	-1.501	-3.499	 H	1	CV1	0.000	
268	   D	5.003	-1.501	-3.499	 H	1	CV1	0.000	
269	   D	6.003	-1.501	-3.499	 H	1	CV1	0.000	
270	   D	7.003	-1.501	-3.499	 H	1	CV1	0.000	
271	   D	-6.997	-0.501	-3.499	 H	1	CV1	0.000	
272	   D	-5.997	-0.501	-3.499	 H	1	CV1	0.000	
273	   D	-4.997	-0.501	-3.499	 H	1	CV1	0.000	
274	   D	-3.997	-0.501	-3.499	 H	1	CV1	0.000	
275	   D	-2.997	-0.501	-3.499	 H	1	CV1	0.000	
276	   D	-1.997	-0.501	-3.499	 H	1	CV1	0.000	
277	   D	-0.997	-0.501	-3.499	 H	1	CV1	0.000	
278	   D	0.003	-0.501	-3.499	 H	1	CV1	0.000	
279	   D	1.003	-0.501	-3.499	 H	1	CV1	0.000	
280	   D	2.003	-0.501	-3.499	 H	1	CV1	0.000	
281	   D	3.003	-0.501	-3.499	 H	1	CV1	0.000	
282	   D	4.003	-0.501	-3.499	 H	1	CV1	0.000	
283	   D	5.003	-0.501	-3.499	 H	1	CV1	0.000	
284	   D	6.003	-0.501	-3.499	 H	1	CV1	0.000	
285	   D	7.003	-0.501	-3.499	 H	1	CV1	0.000	
286	   D	-6.997	0.499	-3.499	 H	1	CV1	0.000	
287	   D	-5.997	0.499	-3.499	 H	1	CV1	0.000	
288	   D	-4.997	0.499	-3.499	 H	1	CV1	0.000	
289	   D	-3.997	0.499	-3.499	 H	1	CV1	0.000	
290	   D	-2.997	0.499	-3.499	 H	1	CV1	0.000	
291	   D	-1.997	0.499	-3.499	 H	1	CV1	0.000	
292	   D	-0.997	0.499	-3.499	 H	1	CV1	0.000	
293	   D	0.003	0.499	-3.499	 H	1	CV1	0.000	
294	   D	1.003	0.499	-3.499	 H	1	CV1	0.000	
295	   D	2.003	0.499	-3.499	 H	1	CV1	0.000	
296	   D	3.003	0.499	-3.499	 H	1	CV1	0.000	
297	   D	4.003	0.499	-3.499	 H	1	CV1	0.000	
298	   D	5.003	0.499	-3.499	 H	1	CV1	0.000	
299	   D	6.003	0.499	-3.499	 H	1	CV1	0.000	
300	   D	7.003	0.499	-3.499	 H	1	CV1	0.000	
301	   D	-7.997	1.499	-3.499	 H	1	CV1	0.000	
302	   D	-6.997	1.499	-3.499	 H	1	CV1	0.000	
303	   D	-5.997	1.499	-3.499	 H	1	CV1	0.000	
304	   D	-4.997	1.499	-3.499	 H	1	CV1	0.000	
305	   D	-3.997	1.499	-3.499	 H	1	CV1	0.000	
306	   D	-2.997	1.499	-3.499	 H	1	CV1	0.000	
307	   D	-1.997	1.499	-3.499	 H	1	CV1	0.000	
308	   D	-0.997	1.499	-3.499	 H	1	CV1	0.000	
309	   D	0.003	1.499	-3.499	 H	1	CV1	0.000	
310	   D	1.003	1.499	-3.499	 H	1	CV1	0.000	
311	   D	2.003	1.499	-3.499	 H	1	CV1	0.000	
312	   D	3.003	1.499	-3.499	 H	1	CV1	0.000	
313	   D	4.003	1.499	-3.499	 H	1	CV1	0.000	
314	   D	5.003	1.499	-3.499	 H	1	CV1	0.000	
315	   D	6.003	1.499	-3.499	 H	1	CV1	0.000	
316	   D	-5.997	2.499	-3.499	 H	1	CV1	0.000	
317	   D	-4.997	2.499	-3.499	 H	1	CV1	0.000	
318	   D	-3.997	2.499	-3.499	 H	1	CV1	0.000	
319	   D	-2.997	2.499	-3.499	 H	1	CV1	0.000	
320	   D	-1.997	2.499	-3.499	 H	1	CV1	0.000	
321	   D	-0.997	2.499	-3.499	 H	1	CV1	0.000	
322	   D	0.003	2.499	-3.499	 H	1	CV1	0.000	
323	   D	1.003	2.499	-3.499	 H	1	CV1	0.000	
324	   D	2.003	2.499	-3.499	 H	1	CV1	0.000	
325	   D	3.003	2.499	-3.499	 H	1	CV1	0.000	
326	   D	4.003	2.499	-3.499	 H	1	CV1	0.000	
327	   D	5.003	2.499	-3.499	 H	1	CV1	0.000	
328	   D	-5.997	3.499	-3.499	 H	1	CV1	0.000	
329	   D	-4.997	3.499	-3.499	 H	1	CV1	0.000	
330	   D	-0.997	3.499	-3.499	 H	1	CV1	0.000	
331	   D	0.003	3.499	-3.499	 H	1	CV1	0.000	
332	   D	1.003	3.499	-3.499	 H	1	CV1	0.000	
333	   D	2.003	3.499	-3.499	 H	1	CV1	0.000	
334	   D	3.003	3.499	-3.499	 H	1	CV1	0.000	
335	   D	-0.997	4.499	-3.499	 H	1	CV1	0.000	
336	   D	0.003	4.499	-3.499	 H	1	CV1	0.000	
337	   D	1.003	4.499	-3.499	 H	1	CV1	0.000	
338	   D	2.003	4.499	-3.499	 H	1	CV1	0.000	
339	   D	3.003	4.499	-3.499	 H	1	CV1	0.000	
340	   D	-0.997	5.499	-3.499	 H	1	CV1	0.000	
341	   D	0.003	5.499	-3.499	 H	1	CV1	0.000	
342	   D	1.003	5.499	-3.499	 H	1	CV1	0.000	
343	   D	2.003	5.499	-3.499	 H	1	CV1	0.000	
344	   D	3.003	5.499	-3.499	 H	1	CV1	0.000	
345	   D	-1.997	6.499	-3.499	 H	1	CV1	0.000	
346	   D	-0.997	6.499	-3.499	 H	1	CV1	0.000	
347	   D	0.003	6.499	-3.499	 H	1	CV1	0.000	
348	   D	1.003	6.499	-3.499	 H	1	CV1	0.000	
349	   D	-0.997	7.499	-3.499	 H	1	CV1	0.000	
350	   D	0.003	7.499	-3.499	 H	1	CV1	0.000	
351	   D	-1.997	-7.501	-2.499	 H	1	CV1	0.000	
352	   D	1.003	-7.501	-2.499	 H	1	CV1	0.000	
353	   D	-2.997	-6.501	-2.499	 H	1	CV1	0.000	
354	   D	-1.997	-6.501	-2.499	 H	1	CV1	0.000	
355	   D	-0.997	-6.501	-2.499	 H	1	CV1	0.000	
356	   D	0.003	-6.501	-2.499	 H	1	CV1	0.000	
357	   D	1.003	-6.501	-2.499	 H	1	CV1	0.000	
358	   D	2.003	-6.501	-2.499	 H	1	CV1	0.000	
359	   D	3.003	-6.501	-2.499	 H	1	CV1	0.000	
360	   D	-4.997	-5.501	-2.499	 H	1	CV1	0.000	
361	   D	-3.997	-5.501	-2.499	 H	1	CV1	0.000	
362	   D	-2.997	-5.501	-2.499	 H	1	CV1	0.000	
363	   D	-1.997	-5.501	-2.499	 H	1	CV1	0.000	
364	   D	-0.997	-5.501	-2.499	 H	1	CV1	0.000	
365	   D	0.003	-5.501	-2.499	 H	1	CV1	0.000	
366	   D	1.003	-5.501	-2.499	 H	1	CV1	0.000	
367	   D	2.003	-5.501	-2.499	 H	1	CV1	0.000	
368	   D	3.003	-5.501	-2.499	 H	1	CV1	0.000	
369	   D	4.003	-5.501	-2.499	 H	1	CV1	0.000	
370	   D	-4.997	-4.501	-2.499	 H	1	CV1	0.000	
371	   D	-3.997	-4.501	-2.499	 H	1	CV1	0.000	
372	   D	-2.997	-4.501	-2.499	 H	1	CV1	0.000	
373	   D	-1.997	-4.501	-2.499	 H	1	CV1	0.000	
374	   D	-0.997	-4.501	-2.499	 H	1	CV1	0.000	
375	   D	0.003	-4.501	-2.499	 H	1	CV1	0.000	
376	   D	1.003	-4.501	-2.499	 H	1	CV1	0.000	
377	   D	2.003	-4.501	-2.499	 H	1	CV1	0.000	
378	   D	3.003	-4.501	-2.499	 H	1	CV1	0.000	
379	   D	4.003	-4.501	-2.499	 H	1	CV1	0.000	
380	   D	-5.997	-3.501	-2.499	 H	1	CV1	0.000	
381	   D	-4.997	-3.501	-2.499	 H	1	CV1	0.000	
382	   D	-3.997	-3.501	-2.499	 H	1	CV1	0.000	
383	   D	-2.997	-3.501	-2.499	 H	1	CV1	0.000	
384	   D	-1.997	-3.501	-2.499	 H	1	CV1	0.000	
385	   D	-0.997	-3.501	-2.499	 H	1	CV1	0.000	
386	   D	0.003	-3.501	-2.499	 H	1	CV1	0.000	
387	   D	1.003	-3.501	-2.499	 H	1	CV1	0.000	
388	   D	2.003	-3.501	-2.499	 H	1	CV1	0.000	
389	   D	3.003	-3.501	-2.499	 H	1	CV1	0.000	
390	   D	4.003	-3.501	-2.499	 H	1	CV1	0.000	
391	   D	5.003	-3.501	-2.499	 H	1	CV1	0.000	
392	   D	-5.997	-2.501	-2.499	 H	1	CV1	0.000	
393	   D	-4.997	-2.501	-2.499	 H	1	CV1	0.000	
394	   D	-3.997	-2.501	-2.499	 H	1	CV1	0.000	
395	   D	-2.997	-2.501	-2.499	 H	1	CV1	0.000	
396	   D	-1.997	-2.501	-2.499	 H	1	CV1	0.000	
397	   D	-0.997	-2.501	-2.499	 H	1	CV1	0.000	
398	   D	0.003	-2.501	-2.499	 H	1	CV1	0.000	
399	   D	1.003	-2.501	-2.499	 H	1	CV1	0.000	
400	   D	2.003	-2.501	-2.499	 H	1	CV1	0.000	
401	   D	3.003	-2.501	-2.499	 H	1	CV1	0.000	
402	   D	4.003	-2.501	-2.499	 H	1	CV1	0.000	
403	   D	5.003	-2.501	-2.499	 H	1	CV1	0.000	
404	   D	6.003	-2.501	-2.499	 H	1	CV1	0.000	
405	   D	-7.997	-1.501	-2.499	 H	1	CV1	0.000	
406	   D	-6.997	-1.501	-2.499	 H	1	CV1	0.000	
407	   D	-5.997	-1.501	-2.499	 H	1	CV1	0.000	
408	   D	-4.997	-1.501	-2.499	 H	1	CV1	0.000	
409	   D	-3.997	-1.501	-2.499	 H	1	CV1	0.000	
410	   D	-2.997	-1.501	-2.499	 H	1	CV1	0.000	
411	   D	-1.997	-1.501	-2.499	 H	1	CV1	0.000	
412	   D	-0.997	-1.501	-2.499	 H	1	CV1	0.000	
413	   D	0.003	-1.501	-2.499	 H	1	CV1	0.000	
414	   D	1.003	-1.501	-2.499	 H	1	CV1	0.000	
415	   D	2.003	-1.501	-2.499	 H	1	CV1	0.000	
416	   D	3.003	-1.501	-2.499	 H	1	CV1	0.000	
417	   D	4.003	-1.501	-2.499	 H	1	CV1	0.000	
418	   D	5.003	-1.501	-2.499	 H	1	CV1	0.000	
419	   D	6.003	-1.501	-2.499	 H	1	CV1	0.000	
420	   D	7.003	-1.501	-2.499	 H	1	CV1	0.000	
421	   D	-6.997	-0.501	-2.499	 H	1	CV1	0.000	
422	   D	-5.997	-0.501	-2.499	 H	1	CV1	0.000	
423	   D	-4.997	-0.501	-2.499	 H	1	CV1	0.000	
424	   D	-3.997	-0.501	-2.499	 H	1	CV1	0.000	
425	   D	-2.997	-0.501	-2.499	 H	1	CV1	0.000	
426	   D	-1.997	-0.501	-2.499	 H	1	CV1	0.000	
427	   D	-0.997	-0.501	-2.499	 H	1	CV1	0.000	
428	   D	0.003	-0.501	-2.499	 H	1	CV1	0.000	
429	   D	1.003	-0.501	-2.499	 H	1	CV1	0.000	
430	   D	2.003	-0.501	-2.499	 H	1	CV1	0.000	
431	   D	3.003	-0.501	-2.499	 H	1	CV1	0.000	
432	   D	4.003	-0.501	-2.499	 H	1	CV1	0.000	
433	   D	5.003	-0.501	-2.499	 H	1	CV1	0.000	
434	   D	6.003	-0.501	-2.499	 H	1	CV1	0.000	
435	   D	-6.997	0.499	-2.499	 H	1	CV1	0.000	
436	   D	-5.997	0.499	-2.499	 H	1	CV1	0.000	
437	   D	-4.997	0.499	-2.499	 H	1	CV1	0.000	
438	   D	-3.997	0.499	-2.499	 H	1	CV1	0.000	
439	   D	-2.997	0.499	-2.499	 H	1	CV1	0.000	
440	   D	-1.997	0.499	-2.499	 H	1	CV1	0.000	
441	   D	-0.997	0.499	-2.499	 H	1	CV1	0.000	
442	   D	0.003	0.499	-2.499	 H	1	CV1	0.000	
443	   D	1.003	0.499	-2.499	 H	1	CV1	0.000	
444	   D	2.003	0.499	-2.499	 H	1	CV1	0.000	
445	   D	3.003	0.499	-2.499	 H	1	CV1	0.000	
446	   D	4.003	0.499	-2.499	 H	1	CV1	0.000	
447	   D	5.003	0.499	-2.499	 H	1	CV1	0.000	
448	   D	6.003	0.499	-2.499	 H	1	CV1	0.000	
449	   D	-6.997	1.499	-2.499	 H	1	CV1	0.000	
450	   D	-5.997	1.499	-2.499	 H	1	CV1	0.000	
451	   D	-4.997	1.499	-2.499	 H	1	CV1	0.000	
452	   D	-3.997	1.499	-2.499	 H	1	CV1	0.000	
453	   D	-2.997	1.499	-2.499	 H	1	CV1	0.000	
454	   D	-1.997	1.499	-2.499	 H	1	CV1	0.000	
455	   D	-0.997	1.499	-2.499	 H	1	CV1	0.000	
456	   D	0.003	1.499	-2.499	 H	1	CV1	0.000	
457	   D	1.003	1.499	-2.499	 H	1	CV1	0.000	
458	   D	2.003	1.499	-2.499	 H	1	CV1	0.000	
459	   D	3.003	1.499	-2.499	 H	1	CV1	0.000	
460	   D	4.003	1.499	-2.499	 H	1	CV1	0.000	
461	   D	5.003	1.499	-2.499	 H	1	CV1	0.000	
462	   D	6.003	1.499	-2.499	 H	1	CV1	0.000	
463	   D	-6.997	2.499	-2.499	 H	1	CV1	0.000	
464	   D	-5.997	2.499	-2.499	 H	1	CV1	0.000	
465	   D	-4.997	2.499	-2.499	 H	1	CV1	0.000	
466	   D	-3.997	2.499	-2.499	 H	1	CV1	0.000	
467	   D	-2.997	2.499	-2.499	 H	1	CV1	0.000	
468	   D	-1.997	2.499	-2.499	 H	1	CV1	0.000	
469	   D	-0.997	2.499	-2.499	 H	1	CV1	0.000	
470	   D	0.003	2.499	-2.499	 H	1	CV1	0.000	
471	   D	1.003	2.499	-2.499	 H	1	CV1	0.000	
472	   D	2.003	2.499	-2.499	 H	1	CV1	0.000	
473	   D	3.003	2.499	-2.499	 H	1	CV1	0.000	
474	   D	4.003	2.499	-2.499	 H	1	CV1	0.000	
475	   D	5.003	2.499	-2.499	 H	1	CV1	0.000	
476	   D	-5.997	3.499	-2.499	 H	1	CV1	0.000	
477	   D	-4.997	3.499	-2.499	 H	1	CV1	0.000	
478	   D	-3.997	3.499	-2.499	 H	1	CV1	0.000	
479	   D	-2.997	3.499	-2.499	 H	1	CV1	0.000	
480	   D	-1.997	3.499	-2.499	 H	1	CV1	0.000	
481	   D	-0.997	3.499	-2.499	 H	1	CV1	0.000	
482	   D	0.003	3.499	-2.499	 H	1	CV1	0.000	
483	   D	1.003	3.499	-2.499	 H	1	CV1	0.000	
484	   D	2.003	3.499	-2.499	 H	1	CV1	0.000	
485	   D	3.003	3.499	-2.499	 H	1	CV1	0.000	
486	   D	4.003	3.499	-2.499	 H	1	CV1	0.000	
487	   D	5.003	3.499	-2.499	 H	1	CV1	0.000	
488	   D	-4.997	4.499	-2.499	 H	1	CV1	0.000	
489	   D	-3.997	4.499	-2.499	 H	1	CV1	0.000	
490	   D	-2.997	4.499	-2.499	 H	1	CV1	0.000	
491	   D	-1.997	4.499	-2.499	 H	1	CV1	0.000	
492	   D	-0.997	4.499	-2.499	 H	1	CV1	0.000	
493	   D	0.003	4.499	-2.499	 H	1	CV1	0.000	
494	   D	1.003	4.499	-2.499	 H	1	CV1	0.000	
495	   D	2.003	4.499	-2.499	 H	1	CV1	0.000	
496	   D	3.003	4.499	-2.499	 H	1	CV1	0.000	
497	   D	4.003	4.499	-2.499	 H	1	CV1	0.000	
498	   D	-4.997	5.499	-2.499	 H	1	CV1	0.000	
499	   D	-3.997	5.499	-2.499	 H	1	CV1	0.000	
500	   D	-2.997	5.499	-2.499	 H	1	CV1	0.000	
501	   D	-1.997	5.499	-2.499	 H	1	CV1	0.000	
502	   D	-0.997	5.499	-2.499	 H	1	CV1	0.000	
503	   D	0.003	5.499	-2.499	 H	1	CV1	0.000	
504	   D	1.003	5.499	-2.499	 H	1	CV1	0.000	
505	   D	2.003	5.499	-2.499	 H	1	CV1	0.000	
506	   D	3.003	5.499	-2.499	 H	1	CV1	0.000	
507	   D	4.003	5.499	-2.499	 H	1	CV1	0.000	
508	   D	-2.997	6.499	-2.499	 H	1	CV1	0.000	
509	   D	-1.997	6.499	-2.499	 H	1	CV1	0.000	
510	   D	-0.997	6.499	-2.499	 H	1	CV1	0.000	
511	   D	1.003	6.499	-2.499	 H	1	CV1	0.000	
512	   D	-5.997	-6.501	-1.499	 H	1	CV1	0.000	
513	   D	-2.997	-6.501	-1.499	 H	1	CV1	0.000	
514	   D	-1.997	-6.501	-1.499	 H	1	CV1	0.000	
515	   D	-0.997	-6.501	-1.499	 H	1	CV1	0.000	
516	   D	0.003	-6.501	-1.499	 H	1	CV1	0.000	
517	   D	1.003	-6.501	-1.499	 H	1	CV1	0.000	
518	   D	2.003	-6.501	-1.499	 H	1	CV1	0.000	
519	   D	3.003	-6.501	-1.499	 H	1	CV1	0.000	
520	   D	4.003	-6.501	-1.499	 H	1	CV1	0.000	
521	   D	5.003	-6.501	-1.499	 H	1	CV1	0.000	
522	   D	-4.997	-5.501	-1.499	 H	1	CV1	0.000	
523	   D	-3.997	-5.501	-1.499	 H	1	CV1	0.000	
524	   D	-2.997	-5.501	-1.499	 H	1	CV1	0.000	
525	   D	-1.997	-5.501	-1.499	 H	1	CV1	0.000	
526	   D	-0.997	-5.501	-1.499	 H	1	CV1	0.000	
527	   D	0.003	-5.501	-1.499	 H	1	CV1	0.000	
528	   D	1.003	-5.501	-1.499	 H	1	CV1	0.000	
529	   D	2.003	-5.501	-1.499	 H	1	CV1	0.000	
530	   D	3.003	-5.501	-1.499	 H	1	CV1	0.000	
531	   D	4.003	-5.501	-1.499	 H	1	CV1	0.000	
532	   D	5.003	-5.501	-1.499	 H	1	CV1	0.000	
533	   D	-4.997	-4.501	-1.499	 H	1	CV1	0.000	
534	   D	-3.997	-4.501	-1.499	 H	1	CV1	0.000	
535	   D	-2.997	-4.501	-1.499	 H	1	CV1	0.000	
536	   D	-1.997	-4.501	-1.499	 H	1	CV1	0.000	
537	   D	-0.997	-4.501	-1.499	 H	1	CV1	0.000	
538	   D	0.003	-4.501	-1.499	 H	1	CV1	0.000	
539	   D	1.003	-4.501	-1.499	 H	1	CV1	0.000	
540	   D	2.003	-4.501	-1.499	 H	1	CV1	0.000	
541	   D	3.003	-4.501	-1.499	 H	1	CV1	0.000	
542	   D	4.003	-4.501	-1.499	 H	1	CV1	0.000	
543	   D	5.003	-4.501	-1.499	 H	1	CV1	0.000	
544	   D	-5.997	-3.501	-1.499	 H	1	CV1	0.000	
545	   D	-4.997	-3.501	-1.499	 H	1	CV1	0.000	
546	   D	-3.997	-3.501	-1.499	 H	1	CV1	0.000	
547	   D	-2.997	-3.501	-1.499	 H	1	CV1	0.000	
548	   D	-1.997	-3.501	-1.499	 H	1	CV1	0.000	
549	   D	-0.997	-3.501	-1.499	 H	1	CV1	0.000	
550	   D	0.003	-3.501	-1.499	 H	1	CV1	0.000	
551	   D	1.003	-3.501	-1.499	 H	1	CV1	0.000	
552	   D	2.003	-3.501	-1.499	 H	1	CV1	0.000	
553	   D	3.003	-3.501	-1.499	 H	1	CV1	0.000	
554	   D	4.003	-3.501	-1.499	 H	1	CV1	0.000	
555	   D	5.003	-3.501	-1.499	 H	1	CV1	0.000	
556	   D	6.003	-3.501	-1.499	 H	1	CV1	0.000	
557	   D	-6.997	-2.501	-1.499	 H	1	CV1	0.000	
558	   D	-5.997	-2.501	-1.499	 H	1	CV1	0.000	
559	   D	-4.997	-2.501	-1.499	 H	1	CV1	0.000	
560	   D	-3.997	-2.501	-1.499	 H	1	CV1	0.000	
561	   D	-2.997	-2.501	-1.499	 H	1	CV1	0.000	
562	   D	-1.997	-2.501	-1.499	 H	1	CV1	0.000	
563	   D	-0.997	-2.501	-1.499	 H	1	CV1	0.000	
564	   D	0.003	-2.501	-1.499	 H	1	CV1	0.000	
565	   D	1.003	-2.501	-1.499	 H	1	CV1	0.000	
566	   D	2.003	-2.501	-1.499	 H	1	CV1	0.000	
567	   D	3.003	-2.501	-1.499	 H	1	CV1	0.000	
568	   D	4.003	-2.501	-1.499	 H	1	CV1	0.000	
569	   D	5.003	-2.501	-1.499	 H	1	CV1	0.000	
570	   D	6.003	-2.501	-1.499	 H	1	CV1	0.000	
571	   D	-6.997	-1.501	-1.499	 H	1	CV1	0.000	
572	   D	-5.997	-1.501	-1.499	 H	1	CV1	0.000	
573	   D	-4.997	-1.501	-1.499	 H	1	CV1	0.000	
574	   D	-3.997	-1.501	-1.499	 H	1	CV1	0.000	
575	   D	-2.997	-1.501	-1.499	 H	1	CV1	0.000	
576	   D	-1.997	-1.501	-1.499	 H	1	CV1	0.000	
577	   D	-0.997	-1.501	-1.499	 H	1	CV1	0.000	
578	   D	0.003	-1.501	-1.499	 H	1	CV1	0.000	
579	   D	1.003	-1.501	-1.499	 H	1	CV1	0.000	
580	   D	2.003	-1.501	-1.499	 H	1	CV1	0.000	
581	   D	3.003	-1.501	-1.499	 H	1	CV1	0.000	
582	   D	4.003	-1.501	-1.499	 H	1	CV1	0.000	
583	   D	5.003	-1.501	-1.499	 H	1	CV1	0.000	
584	   D	6.003	-1.501	-1.499	 H	1	CV1	0.000	
585	   D	-6.997	-0.501	-1.499	 H	1	CV1	0.000	
586	   D	-5.997	-0.501	-1.499	 H	1	CV1	0.000	
587	   D	-4.997	-0.501	-1.499	 H	1	CV1	0.000	
588	   D	-3.997	-0.501	-1.499	 H	1	CV1	0.000	
589	   D	-2.997	-0.501	-1.499	 H	1	CV1	0.000	
590	   D	-1.997	-0.501	-1.499	 H	1	CV1	0.000	
591	   D	-0.997	-0.501	-1.499	 H	1	CV1	0.000	
592	   D	0.003	-0.501	-1.499	 H	1	CV1	0.000	
593	   D	1.003	-0.501	-1.499	 H	1	CV1	0.000	
594	   D	2.003	-0.501	-1.499	 H	1	CV1	0.000	
595	   D	3.003	-0.501	-1.499	 H	1	CV1	0.000	
596	   D	4.003	-0.501	-1.499	 H	1	CV1	0.000	
597	   D	5.003	-0.501	-1.499	 H	1	CV1	0.000	
598	   D	6.003	-0.501	-1.499	 H	1	CV1	0.000	
599	   D	-5.997	0.499	-1.499	 H	1	CV1	0.000	
600	   D	-4.997	0.499	-1.499	 H	1	CV1	0.000	
601	   D	-3.997	0.499	-1.499	 H	1	CV1	0.000	
602	   D	-2.997	0.499	-1.499	 H	1	CV1	0.000	
603	   D	-1.997	0.499	-1.499	 H	1	CV1	0.000	
604	   D	-0.997	0.499	-1.499	 H	1	CV1	0.000	
605	   D	0.003	0.499	-1.499	 H	1	CV1	0.000	
606	   D	1.003	0.499	-1.499	 H	1	CV1	0.000	
607	   D	2.003	0.499	-1.499	 H	1	CV1	0.000	
608	   D	3.003	0.499	-1.499	 H	1	CV1	0.000	
609	   D	4.003	0.499	-1.499	 H	1	CV1	0.000	
610	   D	5.003	0.499	-1.499	 H	1	CV1	0.000	
611	   D	6.003	0.499	-1.499	 H	1	CV1	0.000	
612	   D	-6.997	1.499	-1.499	 H	1	CV1	0.000	
613	   D	-5.997	1.499	-1.499	 H	1	CV1	0.000	
614	   D	-4.997	1.499	-1.499	 H	1	CV1	0.000	
615	   D	-3.997	1.499	-1.499	 H	1	CV1	0.000	
616	   D	-2.997	1.499	-1.499	 H	1	CV1	0.000	
617	   D	-1.997	1.499	-1.499	 H	1	CV1	0.000	
618	   D	-0.997	1.499	-1.499	 H	1	CV1	0.000	
619	   D	0.003	1.499	-1.499	 H	1	CV1	0.000	
620	   D	1.003	1.499	-1.499	 H	1	CV1	0.000	
621	   D	2.003	1.499	-1.499	 H	1	CV1	0.000	
622	   D	3.003	1.499	-1.499	 H	1	CV1	0.000	
623	   D	4.003	1.499	-1.499	 H	1	CV1	0.000	
624	   D	5.003	1.499	-1.499	 H	1	CV1	0.000	
625	   D	6.003	1.499	-1.499	 H	1	CV1	0.000	
626	   D	7.003	1.499	-1.499	 H	1	CV1	0.000	
627	   D	-6.997	2.499	-1.499	 H	1	CV1	0.000	
628	   D	-5.997	2.499	-1.499	 H	1	CV1	0.000	
629	   D	-4.997	2.499	-1.499	 H	1	CV1	0.000	
630	   D	-3.997	2.499	-1.499	 H	1	CV1	0.000	
631	   D	-2.997	2.499	-1.499	 H	1	CV1	0.000	
632	   D	-1.997	2.499	-1.499	 H	1	CV1	0.000	
633	   D	-0.997	2.499	-1.499	 H	1	CV1	0.000	
634	   D	0.003	2.499	-1.499	 H	1	CV1	0.000	
635	   D	1.003	2.499	-1.499	 H	1	CV1	0.000	
636	   D	2.003	2.499	-1.499	 H	1	CV1	0.000	
637	   D	3.003	2.499	-1.499	 H	1	CV1	0.000	
638	   D	4.003	2.499	-1.499	 H	1	CV1	0.000	
639	   D	5.003	2.499	-1.499	 H	1	CV1	0.000	
640	   D	6.003	2.499	-1.499	 H	1	CV1	0.000	
641	   D	-5.997	3.499	-1.499	 H	1	CV1	0.000	
642	   D	-4.997	3.499	-1.499	 H	1	CV1	0.000	
643	   D	-3.997	3.499	-1.499	 H	1	CV1	0.000	
644	   D	-2.997	3.499	-1.499	 H	1	CV1	0.000	
645	   D	-1.997	3.499	-1.499	 H	1	CV1	0.000	
646	   D	-0.997	3.499	-1.499	 H	1	CV1	0.000	
647	   D	0.003	3.499	-1.499	 H	1	CV1	0.000	
648	   D	1.003	3.499	-1.499	 H	1	CV1	0.000	
649	   D	2.003	3.499	-1.499	 H	1	CV1	0.000	
650	   D	3.003	3.499	-1.499	 H	1	CV1	0.000	
651	   D	4.003	3.499	-1.499	 H	1	CV1	0.000	
652	   D	5.003	3.499	-1.499	 H	1	CV1	0.000	
653	   D	-5.997	4.499	-1.499	 H	1	CV1	0.000	
654	   D	-4.997	4.499	-1.499	 H	1	CV1	0.000	
655	   D	-3.997	4.499	-1.499	 H	1	CV1	0.000	
656	   D	-2.997	4.499	-1.499	 H	1	CV1	0.000	
657	   D	-1.997	4.499	-1.499	 H	1	CV1	0.000	
658	   D	-0.997	4.499	-1.499	 H	1	CV1	0.000	
659	   D	0.003	4.499	-1.499	 H	1	CV1	0.000	
660	   D	1.003	4.499	-1.499	 H	1	CV1	0.000	
661	   D	2.003	4.499	-1.499	 H	1	CV1	0.000	
662	   D	3.003	4.499	-1.499	 H	1	CV1	0.000	
663	   D	4.003	4.499	-1.499	 H	1	CV1	0.000	
664	   D	5.003	4.499	-1.499	 H	1	CV1	0.000	
665	   D	-5.997	5.499	-1.499	 H	1	CV1	0.000	
666	   D	-4.997	5.499	-1.499	 H	1	CV1	0.000	
667	   D	-3.997	5.499	-1.499	 H	1	CV1	0.000	
668	   D	-2.997	5.499	-1.499	 H	1	CV1	0.000	
669	   D	-1.997	5.499	-1.499	 H	1	CV1	0.000	
670	   D	-0.997	5.499	-1.499	 H	1	CV1	0.000	
671	   D	0.003	5.499	-1.499	 H	1	CV1	0.000	
672	   D	1.003	5.499	-1.499	 H	1	CV1	0.000	
673	   D	2.003	5.499	-1.499	 H	1	CV1	0.000	
674	   D	3.003	5.499	-1.499	 H	1	CV1	0.000	
675	   D	4.003	5.499	-1.499	 H	1	CV1	0.000	
676	   D	5.003	5.499	-1.499	 H	1	CV1	0.000	
677	   D	-6.997	6.499	-1.499	 H	1	CV1	0.000	
678	   D	-5.997	6.499	-1.499	 H	1	CV1	0.000	
679	   D	-2.997	6.499	-1.499	 H	1	CV1	0.000	
680	   D	-1.997	6.499	-1.499	 H	1	CV1	0.000	
681	   D	-6.997	-7.501	-0.499	 H	1	CV1	0.000	
682	   D	-5.997	-7.501	-0.499	 H	1	CV1	0.000	
683	   D	-4.997	-7.501	-0.499	 H	1	CV1	0.000	
684	   D	6.003	-7.501	-0.499	 H	1	CV1	0.000	
685	   D	7.003	-7.501	-0.499	 H	1	CV1	0.000	
686	   D	-6.997	-6.501	-0.499	 H	1	CV1	0.000	
687	   D	-5.997	-6.501	-0.499	 H	1	CV1	0.000	
688	   D	-4.997	-6.501	-0.499	 H	1	CV1	0.000	
689	   D	-3.997	-6.501	-0.499	 H	1	CV1	0.000	
690	   D	-2.997	-6.501	-0.499	 H	1	CV1	0.000	
691	   D	-1.997	-6.501	-0.499	 H	1	CV1	0.000	
692	   D	-0.997	-6.501	-0.499	 H	1	CV1	0.000	
693	   D	0.003	-6.501	-0.499	 H	1	CV1	0.000	
694	   D	1.003	-6.501	-0.499	 H	1	CV1	0.000	
695	   D	2.003	-6.501	-0.499	 H	1	CV1	0.000	
696	   D	3.003	-6.501	-0.499	 H	1	CV1	0.000	
697	   D	4.003	-6.501	-0.499	 H	1	CV1	0.000	
698	   D	5.003	-6.501	-0.499	 H	1	CV1	0.000	
699	   D	6.003	-6.501	-0.499	 H	1	CV1	0.000	
700	   D	7.003	-6.501	-0.499	 H	1	CV1	0.000	
701	   D	-5.997	-5.501	-0.499	 H	1	CV1	0.000	
702	   D	-4.997	-5.501	-0.499	 H	1	CV1	0.000	
703	   D	-3.997	-5.501	-0.499	 H	1	CV1	0.000	
704	   D	-2.997	-5.501	-0.499	 H	1	CV1	0.000	
705	   D	-1.997	-5.501	-0.499	 H	1	CV1	0.000	
706	   D	-0.997	-5.501	-0.499	 H	1	CV1	0.000	
707	   D	0.003	-5.501	-0.499	 H	1	CV1	0.000	
708	   D	1.003	-5.501	-0.499	 H	1	CV1	0.000	
709	   D	2.003	-5.501	-0.499	 H	1	CV1	0.000	
710	   D	3.003	-5.501	-0.499	 H	1	CV1	0.000	
711	   D	4.003	-5.501	-0.499	 H	1	CV1	0.000	
712	   D	5.003	-5.501	-0.499	 H	1	CV1	0.000	
713	   D	-5.997	-4.501	-0.499	 H	1	CV1	0.000	
714	   D	-4.997	-4.501	-0.499	 H	1	CV1	0.000	
715	   D	-3.997	-4.501	-0.499	 H	1	CV1	0.000	
716	   D	-2.997	-4.501	-0.499	 H	1	CV1	0.000	
717	   D	-1.997	-4.501	-0.499	 H	1	CV1	0.000	
718	   D	-0.997	-4.501	-0.499	 H	1	CV1	0.000	
719	   D	0.003	-4.501	-0.499	 H	1	CV1	0.000	
720	   D	1.003	-4.501	-0.499	 H	1	CV1	0.000	
721	   D	2.003	-4.501	-0.499	 H	1	CV1	0.000	
722	   D	3.003	-4.501	-0.499	 H	1	CV1	0.000	
723	   D	4.003	-4.501	-0.499	 H	1	CV1	0.000	
724	   D	5.003	-4.501	-0.499	 H	1	CV1	0.000	
725	   D	6.003	-4.501	-0.499	 H	1	CV1	0.000	
726	   D	-6.997	-3.501	-0.499	 H	1	CV1	0.000	
727	   D	-5.997	-3.501	-0.499	 H	1	CV1	0.000	
728	   D	-4.997	-3.501	-0.499	 H	1	CV1	0.000	
729	   D	-3.997	-3.501	-0.499	 H	1	CV1	0.000	
730	   D	-2.997	-3.501	-0.499	 H	1	CV1	0.000	
731	   D	-1.997	-3.501	-0.499	 H	1	CV1	0.000	
732	   D	-0.997	-3.501	-0.499	 H	1	CV1	0.000	
733	   D	0.003	-3.501	-0.499	 H	1	CV1	0.000	
734	   D	1.003	-3.501	-0.499	 H	1	CV1	0.000	
735	   D	2.003	-3.501	-0.499	 H	1	CV1	0.000	
736	   D	3.003	-3.501	-0.499	 H	1	CV1	0.000	
737	   D	4.003	-3.501	-0.499	 H	1	CV1	0.000	
738	   D	5.003	-3.501	-0.499	 H	1	CV1	0.000	
739	   D	6.003	-3.501	-0.499	 H	1	CV1	0.000	
740	   D	-6.997	-2.501	-0.499	 H	1	CV1	0.000	
741	   D	-5.997	-2.501	-0.499	 H	1	CV1	0.000	
742	   D	-4.997	-2.501	-0.499	 H	1	CV1	0.000	
743	   D	-3.997	-2.501	-0.499	 H	1	CV1	0.000	
744	   D	-2.997	-2.501	-0.499	 H	1	CV1	0.000	
745	   D	-1.997	-2.501	-0.499	 H	1	CV1	0.000	
746	   D	-0.997	-2.501	-0.499	 H	1	CV1	0.000	
747	   D	0.003	-2.501	-0.499	 H	1	CV1	0.000	
748	   D	1.003	-2.501	-0.499	 H	1	CV1	0.000	
749	   D	2.003	-2.501	-0.499	 H	1	CV1	0.000	
750	   D	3.003	-2.501	-0.499	 H	1	CV1	0.000	
751	   D	4.003	-2.501	-0.499	 H	1	CV1	0.000	
752	   D	5.003	-2.501	-0.499	 H	1	CV1	0.000	
753	   D	6.003	-2.501	-0.499	 H	1	CV1	0.000	
754	   D	-6.997	-1.501	-0.499	 H	1	CV1	0.000	
755	   D	-5.997	-1.501	-0.499	 H	1	CV1	0.000	
756	   D	-4.997	-1.501	-0.499	 H	1	CV1	0.000	
757	   D	-3.997	-1.501	-0.499	 H	1	CV1	0.000	
758	   D	-2.997	-1.501	-0.499	 H	1	CV1	0.000	
759	   D	-1.997	-1.501	-0.499	 H	1	CV1	0.000	
760	   D	-0.997	-1.501	-0.499	 H	1	CV1	0.000	
761	   D	0.003	-1.501	-0.499	 H	1	CV1	0.000	
762	   D	1.003	-1.501	-0.499	 H	1	CV1	0.000	
763	   D	2.003	-1.501	-0.499	 H	1	CV1	0.000	
764	   D	3.003	-1.501	-0.499	 H	1	CV1	0.000	
765	   D	4.003	-1.501	-0.499	 H	1	CV1	0.000	
766	   D	5.003	-1.501	-0.499	 H	1	CV1	0.000	
767	   D	6.003	-1.501	-0.499	 H	1	CV1	0.000	
768	   D	-6.997	-0.501	-0.499	 H	1	CV1	0.000	
769	   D	-5.997	-0.501	-0.499	 H	1	CV1	0.000	
770	   D	-4.997	-0.501	-0.499	 H	1	CV1	0.000	
771	   D	-3.997	-0.501	-0.499	 H	1	CV1	0.000	
772	   D	-2.997	-0.501	-0.499	 H	1	CV1	0.000	
773	   D	-1.997	-0.501	-0.499	 H	1	CV1	0.000	
774	   D	-0.997	-0.501	-0.499	 H	1	CV1	0.000	
775	   D	0.003	-0.501	-0.499	 H	1	CV1	0.000	
776	   D	1.003	-0.501	-0.499	 H	1	CV1	0.000	
777	   D	2.003	-0.501	-0.499	 H	1	CV1	0.000	
778	   D	3.003	-0.501	-0.499	 H	1	CV1	0.000	
779	   D	4.003	-0.501	-0.499	 H	1	CV1	0.000	
780	   D	5.003	-0.501	-0.499	 H	1	CV1	0.000	
781	   D	6.003	-0.501	-0.499	 H	1	CV1	0.000	
782	   D	-6.997	0.499	-0.499	 H	1	CV1	0.000	
783	   D	-5.997	0.499	-0.499	 H	1	CV1	0.000	
784	   D	-4.997	0.499	-0.499	 H	1	CV1	0.000	
785	   D	-3.997	0.499	-0.499	 H	1	CV1	0.000	
786	   D	-2.997	0.499	-0.499	 H	1	CV1	0.000	
787	   D	-1.997	0.499	-0.499	 H	1	CV1	0.000	
788	   D	-0.997	0.499	-0.499	 H	1	CV1	0.000	
789	   D	0.003	0.499	-0.499	 H	1	CV1	0.000	
790	   D	1.003	0.499	-0.499	 H	1	CV1	0.000	
791	   D	2.003	0.499	-0.499	 H	1	CV1	0.000	
792	   D	3.003	0.499	-0.499	 H	1	CV1	0.000	
793	   D	4.003	0.499	-0.499	 H	1	CV1	0.000	
794	   D	5.003	0.499	-0.499	 H	1	CV1	0.000	
795	   D	6.003	0.499	-0.499	 H	1	CV1	0.000	
796	   D	-6.997	1.499	-0.499	 H	1	CV1	0.000	
797	   D	-5.997	1.499	-0.499	 H	1	CV1	0.000	
798	   D	-4.997	1.499	-0.499	 H	1	CV1	0.000	
799	   D	-3.997	1.499	-0.499	 H	1	CV1	0.000	
800	   D	-2.997	1.499	-0.499	 H	1	CV1	0.000	
801	   D	-1.997	1.499	-0.499	 H	1	CV1	0.000	
802	   D	-0.997	1.499	-0.499	 H	1	CV1	0.000	
803	   D	0.003	1.499	-0.499	 H	1	CV1	0.000	
804	   D	1.003	1.499	-0.499	 H	1	CV1	0.000	
805	   D	2.003	1.499	-0.499	 H	1	CV1	0.000	
806	   D	3.003	1.499	-0.499	 H	1	CV1	0.000	
807	   D	4.003	1.499	-0.499	 H	1	CV1	0.000	
808	   D	5.003	1.499	-0.499	 H	1	CV1	0.000	
809	   D	6.003	1.499	-0.499	 H	1	CV1	0.000	
810	   D	-6.997	2.499	-0.499	 H	1	CV1	0.000	
811	   D	-5.997	2.499	-0.499	 H	1	CV1	0.000	
812	   D	-4.997	2.499	-0.499	 H	1	CV1	0.000	
813	   D	-3.997	2.499	-0.499	 H	1	CV1	0.000	
814	   D	-2.997	2.499	-0.499	 H	1	CV1	0.000	
815	   D	-1.997	2.499	-0.499	 H	1	CV1	0.000	
816	   D	-0.997	2.499	-0.499	 H	1	CV1	0.000	
817	   D	0.003	2.499	-0.499	 H	1	CV1	0.000	
818	   D	1.003	2.499	-0.499	 H	1	CV1	0.000	
819	   D	2.003	2.499	-0.499	 H	1	CV1	0.000	
820	   D	3.003	2.499	-0.499	 H	1	CV1	0.000	
821	   D	4.003	2.499	-0.499	 H	1	CV1	0.000	
822	   D	5.003	2.499	-0.499	 H	1	CV1	0.000	
823	   D	6.003	2.499	-0.499	 H	1	CV1	0.000	
824	   D	7.003	2.499	-0.499	 H	1	CV1	0.000	
825	   D	-6.997	3.499	-0.499	 H	1	CV1	0.000	
826	   D	-5.997	3.499	-0.499	 H	1	CV1	0.000	
827	   D	-4.997	3.499	-0.499	 H	1	CV1	0.000	
828	   D	-3.997	3.499	-0.499	 H	1	CV1	0.000	
829	   D	-2.997	3.499	-0.499	 H	1	CV1	0.000	
830	   D	-1.997	3.499	-0.499	 H	1	CV1	0.000	
831	   D	-0.997	3.499	-0.499	 H	1	CV1	0.000	
832	   D	0.003	3.499	-0.499	 H	1	CV1	0.000	
833	   D	1.003	3.499	-0.499	 H	1	CV1	0.000	
834	   D	2.003	3.499	-0.499	 H	1	CV1	0.000	
835	   D	3.003	3.499	-0.499	 H	1	CV1	0.000	
836	   D	4.003	3.499	-0.499	 H	1	CV1	0.000	
837	   D	5.003	3.499	-0.499	 H	1	CV1	0.000	
838	   D	6.003	3.499	-0.499	 H	1	CV1	0.000	
839	   D	-6.997	4.499	-0.499	 H	1	CV1	0.000	
840	   D	-5.997	4.499	-0.499	 H	1	CV1	0.000	
841	   D	-4.997	4.499	-0.499	 H	1	CV1	0.000	
842	   D	-3.997	4.499	-0.499	 H	1	CV1	0.000	
843	   D	-2.997	4.499	-0.499	 H	1	CV1	0.000	
844	   D	-1.997	4.499	-0.499	 H	1	CV1	0.000	
845	   D	-0.997	4.499	-0.499	 H	1	CV1	0.000	
846	   D	0.003	4.499	-0.499	 H	1	CV1	0.000	
847	   D	1.003	4.499	-0.499	 H	1	CV1	0.000	
848	   D	2.003	4.499	-0.499	 H	1	CV1	0.000	
849	   D	3.003	4.499	-0.499	 H	1	CV1	0.000	
850	   D	4.003	4.499	-0.499	 H	1	CV1	0.000	
851	   D	5.003	4.499	-0.499	 H	1	CV1	0.000	
852	   D	-6.997	5.499	-0.499	 H	1	CV1	0.000	
853	   D	-5.997	5.499	-0.499	 H	1	CV1	0.000	
854	   D	-4.997	5.499	-0.499	 H	1	CV1	0.000	
855	   D	-3.997	5.499	-0.499	 H	1	CV1	0.000	
856	   D	-2.997	5.499	-0.499	 H	1	CV1	0.000	
857	   D	-1.997	5.499	-0.499	 H	1	CV1	0.000	
858	   D	-0.997	5.499	-0.499	 H	1	CV1	0.000	
859	   D	1.003	5.499	-0.499	 H	1	CV1	0.000	
860	   D	2.003	5.499	-0.499	 H	1	CV1	0.000	
861	   D	3.003	5.499	-0.499	 H	1	CV1	0.000	
862	   D	4.003	5.499	-0.499	 H	1	CV1	0.000	
863	   D	5.003	5.499	-0.499	 H	1	CV1	0.000	
864	   D	-6.997	6.499	-0.499	 H	1	CV1	0.000	
865	   D	-5.997	6.499	-0.499	 H	1	CV1	0.000	
866	   D	-4.997	6.499	-0.499	 H	1	CV1	0.000	
867	   D	-3.997	6.499	-0.499	 H	1	CV1	0.000	
868	   D	-2.997	6.499	-0.499	 H	1	CV1	0.000	
869	   D	-1.997	6.499	-0.499	 H	1	CV1	0.000	
870	   D	6.003	6.499	-0.499	 H	1	CV1	0.000	
871	   D	7.003	6.499	-0.499	 H	1	CV1	0.000	
872	   D	-6.997	7.499	-0.499	 H	1	CV1	0.000	
873	   D	-5.997	7.499	-0.499	 H	1	CV1	0.000	
874	   D	6.003	7.499	-0.499	 H	1	CV1	0.000	
875	   D	-6.997	-7.501	0.501	 H	1	CV1	0.000	
876	   D	4.003	-7.501	0.501	 H	1	CV1	0.000	
877	   D	5.003	-7.501	0.501	 H	1	CV1	0.000	
878	   D	6.003	-7.501	0.501	 H	1	CV1	0.000	
879	   D	7.003	-7.501	0.501	 H	1	CV1	0.000	
880	   D	-6.997	-6.501	0.501	 H	1	CV1	0.000	
881	   D	-5.997	-6.501	0.501	 H	1	CV1	0.000	
882	   D	-2.997	-6.501	0.501	 H	1	CV1	0.000	
883	   D	-1.997	-6.501	0.501	 H	1	CV1	0.000	
884	   D	-0.997	-6.501	0.501	 H	1	CV1	0.000	
885	   D	2.003	-6.501	0.501	 H	1	CV1	0.000	
886	   D	3.003	-6.501	0.501	 H	1	CV1	0.000	
887	   D	4.003	-6.501	0.501	 H	1	CV1	0.000	
888	   D	5.003	-6.501	0.501	 H	1	CV1	0.000	
889	   D	6.003	-6.501	0.501	 H	1	CV1	0.000	
890	   D	7.003	-6.501	0.501	 H	1	CV1	0.000	
891	   D	-6.997	-5.501	0.501	 H	1	CV1	0.000	
892	   D	-5.997	-5.501	0.501	 H	1	CV1	0.000	
893	   D	-4.997	-5.501	0.501	 H	1	CV1	0.000	
894	   D	-3.997	-5.501	0.501	 H	1	CV1	0.000	
895	   D	-2.997	-5.501	0.501	 H	1	CV1	0.000	
896	   D	-1.997	-5.501	0.501	 H	1	CV1	0.000	
897	   D	-0.997	-5.501	0.501	 H	1	CV1	0.000	
898	   D	0.003	-5.501	0.501	 H	1	CV1	0.000	
899	   D	1.003	-5.501	0.501	 H	1	CV1	0.000	
900	   D	2.003	-5.501	0.501	 H	1	CV1	0.000	
901	   D	3.003	-5.501	0.501	 H	1	CV1	0.000	
902	   D	4.003	-5.501	0.501	 H	1	CV1	0.000	
903	   D	5.003	-5.501	0.501	 H	1	CV1	0.000	
904	   D	6.003	-5.501	0.501	 H	1	CV1	0.000	
905	   D	-6.997	-4.501	0.501	 H	1	CV1	0.000	
906	   D	-5.997	-4.501	0.501	 H	1	CV1	0.000	
907	   D	-4.997	-4.501	0.501	 H	1	CV1	0.000	
908	   D	-3.997	-4.501	0.501	 H	1	CV1	0.000	
909	   D	-2.997	-4.501	0.501	 H	1	CV1	0.000	
910	   D	-1.997	-4.501	0.501	 H	1	CV1	0.000	
911	   D	-0.997	-4.501	0.501	 H	1	CV1	0.000	
912	   D	0.003	-4.501	0.501	 H	1	CV1	0.000	
913	   D	1.003	-4.501	0.501	 H	1	CV1	0.000	
914	   D	2.003	-4.501	0.501	 H	1	CV1	0.000	
915	   D	3.003	-4.501	0.501	 H	1	CV1	0.000	
916	   D	4.003	-4.501	0.501	 H	1	CV1	0.000	
917	   D	5.003	-4.501	0.501	 H	1	CV1	0.000	
918	   D	-6.997	-3.501	0.501	 H	1	CV1	0.000	
919	   D	-5.997	-3.501	0.501	 H	1	CV1	0.000	
920	   D	-4.997	-3.501	0.501	 H	1	CV1	0.000	
921	   D	-3.997	-3.501	0.501	 H	1	CV1	0.000	
922	   D	-2.997	-3.501	0.501	 H	1	CV1	0.000	
923	   D	-1.997	-3.501	0.501	 H	1	CV1	0.000	
924	   D	-0.997	-3.501	0.501	 H	1	CV1	0.000	
925	   D	0.003	-3.501	0.501	 H	1	CV1	0.000	
926	   D	1.003	-3.501	0.501	 H	1	CV1	0.000	
927	   D	2.003	-3.501	0.501	 H	1	CV1	0.000	
928	   D	3.003	-3.501	0.501	 H	1	CV1	0.000	
929	   D	4.003	-3.501	0.501	 H	1	CV1	0.000	
930	   D	5.003	-3.501	0.501	 H	1	CV1	0.000	
931	   D	6.003	-3.501	0.501	 H	1	CV1	0.000	
932	   D	-6.997	-2.501	0.501	 H	1	CV1	0.000	
933	   D	-5.997	-2.501	0.501	 H	1	CV1	0.000	
934	   D	-4.997	-2.501	0.501	 H	1	CV1	0.000	
935	   D	-3.997	-2.501	0.501	 H	1	CV1	0.000	
936	   D	-2.997	-2.501	0.501	 H	1	CV1	0.000	
937	   D	-1.997	-2.501	0.501	 H	1	CV1	0.000	
938	   D	-0.997	-2.501	0.501	 H	1	CV1	0.000	
939	   D	0.003	-2.501	0.501	 H	1	CV1	0.000	
940	   D	1.003	-2.501	0.501	 H	1	CV1	0.000	
941	   D	2.003	-2.501	0.501	 H	1	CV1	0.000	
942	   D	3.003	-2.501	0.501	 H	1	CV1	0.000	
943	   D	4.003	-2.501	0.501	 H	1	CV1	0.000	
944	   D	5.003	-2.501	0.501	 H	1	CV1	0.000	
945	   D	6.003	-2.501	0.501	 H	1	CV1	0.000	
946	   D	-5.997	-1.501	0.501	 H	1	CV1	0.000	
947	   D	-4.997	-1.501	0.501	 H	1	CV1	0.000	
948	   D	-3.997	-1.501	0.501	 H	1	CV1	0.000	
949	   D	-2.997	-1.501	0.501	 H	1	CV1	0.000	
950	   D	-1.997	-1.501	0.501	 H	1	CV1	0.000	
951	   D	-0.997	-1.501	0.501	 H	1	CV1	0.000	
952	   D	0.003	-1.501	0.501	 H	1	CV1	0.000	
953	   D	1.003	-1.501	0.501	 H	1	CV1	0.000	
954	   D	2.003	-1.501	0.501	 H	1	CV1	0.000	
955	   D	3.003	-1.501	0.501	 H	1	CV1	0.000	
956	   D	4.003	-1.501	0.501	 H	1	CV1	0.000	
957	   D	5.003	-1.501	0.501	 H	1	CV1	0.000	
958	   D	6.003	-1.501	0.501	 H	1	CV1	0.000	
959	   D	7.003	-1.501	0.501	 H	1	CV1	0.000	
960	   D	-5.997	-0.501	0.501	 H	1	CV1	0.000	
961	   D	-4.997	-0.501	0.501	 H	1	CV1	0.000	
962	   D	-3.997	-0.501	0.501	 H	1	CV1	0.000	
963	   D	-2.997	-0.501	0.501	 H	1	CV1	0.000	
964	   D	-1.997	-0.501	0.501	 H	1	CV1	0.000	
965	   D	-0.997	-0.501	0.501	 H	1	CV1	0.000	
966	   D	0.003	-0.501	0.501	 H	1	CV1	0.000	
967	   D	1.003	-0.501	0.501	 H	1	CV1	0.000	
968	   D	2.003	-0.501	0.501	 H	1	CV1	0.000	
969	   D	3.003	-0.501	0.501	 H	1	CV1	0.000	
970	   D	4.003	-0.501	0.501	 H	1	CV1	0.000	
971	   D	5.003	-0.501	0.501	 H	1	CV1	0.000	
972	   D	6.003	-0.501	0.501	 H	1	CV1	0.000	
973	   D	-6.997	0.499	0.501	 H	1	CV1	0.000	
974	   D	-5.997	0.499	0.501	 H	1	CV1	0.000	
975	   D	-4.997	0.499	0.501	 H	1	CV1	0.000	
976	   D	-3.997	0.499	0.501	 H	1	CV1	0.000	
977	   D	-2.997	0.499	0.501	 H	1	CV1	0.000	
978	   D	-1.997	0.499	0.501	 H	1	CV1	0.000	
979	   D	-0.997	0.499	0.501	 H	1	CV1	0.000	
980	   D	0.003	0.499	0.501	 H	1	CV1	0.000	
981	   D	1.003	0.499	0.501	 H	1	CV1	0.000	
982	   D	2.003	0.499	0.501	 H	1	CV1	0.000	
983	   D	3.003	0.499	0.501	 H	1	CV1	0.000	
984	   D	4.003	0.499	0.501	 H	1	CV1	0.000	
985	   D	5.003	0.499	0.501	 H	1	CV1	0.000	
986	   D	6.003	0.499	0.501	 H	1	CV1	0.000	
987	   D	-6.997	1.499	0.501	 H	1	CV1	0.000	
988	   D	-5.997	1.499	0.501	 H	1	CV1	0.000	
989	   D	-4.997	1.499	0.501	 H	1	CV1	0.000	
990	   D	-3.997	1.499	0.501	 H	1	CV1	0.000	
991	   D	-2.997	1.499	0.501	 H	1	CV1	0.000	
992	   D	-1.997	1.499	0.501	 H	1	CV1	0.000	
993	   D	-0.997	1.499	0.501	 H	1	CV1	0.000	
994	   D	0.003	1.499	0.501	 H	1	CV1	0.000	
995	   D	1.003	1.499	0.501	 H	1	CV1	0.000	
996	   D	2.003	1.499	0.501	 H	1	CV1	0.000	
997	   D	3.003	1.499	0.501	 H	1	CV1	0.000	
998	   D	4.003	1.499	0.501	 H	1	CV1	0.000	
999	   D	5.003	1.499	0.501	 H	1	CV1	0.000	
1000	   D	6.003	1.499	0.501	 H	1	CV1	0.000	
1001	   D	7.003	1.499	0.501	 H	1	CV1	0.000	
1002	   D	-6.997	2.499	0.501	 H	1	CV1	0.000	
1003	   D	-5.997	2.499	0.501	 H	1	CV1	0.000	
1004	   D	-4.997	2.499	0.501	 H	1	CV1	0.000	
1005	   D	-3.997	2.499	0.501	 H	1	CV1	0.000	
1006	   D	-2.997	2.499	0.501	 H	1	CV1	0.000	
1007	   D	-1.997	2.499	0.501	 H	1	CV1	0.000	
1008	   D	-0.997	2.499	0.501	 H	1	CV1	0.000	
1009	   D	0.003	2.499	0.501	 H	1	CV1	0.000	
1010	   D	1.003	2.499	0.501	 H	1	CV1	0.000	
1011	   D	2.003	2.499	0.501	 H	1	CV1	0.000	
1012	   D	3.003	2.499	0.501	 H	1	CV1	0.000	
1013	   D	4.003	2.499	0.501	 H	1	CV1	0.000	
1014	   D	5.003	2.499	0.501	 H	1	CV1	0.000	
1015	   D	6.003	2.499	0.501	 H	1	CV1	0.000	
1016	   D	7.003	2.499	0.501	 H	1	CV1	0.000	
1017	   D	-5.997	3.499	0.501	 H	1	CV1	0.000	
1018	   D	-4.997	3.499	0.501	 H	1	CV1	0.000	
1019	   D	-3.997	3.499	0.501	 H	1	CV1	0.000	
1020	   D	-2.997	3.499	0.501	 H	1	CV1	0.000	
1021	   D	-1.997	3.499	0.501	 H	1	CV1	0.000	
1022	   D	-0.997	3.499	0.501	 H	1	CV1	0.000	
1023	   D	0.003	3.499	0.501	 H	1	CV1	0.000	
1024	   D	1.003	3.499	0.501	 H	1	CV1	0.000	
1025	   D	2.003	3.499	0.501	 H	1	CV1	0.000	
1026	   D	3.003	3.499	0.501	 H	1	CV1	0.000	
1027	   D	4.003	3.499	0.501	 H	1	CV1	0.000	
1028	   D	5.003	3.499	0.501	 H	1	CV1	0.000	
1029	   D	6.003	3.499	0.501	 H	1	CV1	0.000	
1030	   D	7.003	3.499	0.501	 H	1	CV1	0.000	
1031	   D	-4.997	4.499	0.501	 H	1	CV1	0.000	
1032	   D	-3.997	4.499	0.501	 H	1	CV1	0.000	
1033	   D	-2.997	4.499	0.501	 H	1	CV1	0.000	
1034	   D	-1.997	4.499	0.501	 H	1	CV1	0.000	
1035	   D	-0.997	4.499	0.501	 H	1	CV1	0.000	
1036	   D	0.003	4.499	0.501	 H	1	CV1	0.000	
1037	   D	1.003	4.499	0.501	 H	1	CV1	0.000	
1038	   D	2.003	4.499	0.501	 H	1	CV1	0.000	
1039	   D	3.003	4.499	0.501	 H	1	CV1	0.000	
1040	   D	4.003	4.499	0.501	 H	1	CV1	0.000	
1041	   D	5.003	4.499	0.501	 H	1	CV1	0.000	
1042	   D	6.003	4.499	0.501	 H	1	CV1	0.000	
1043	   D	7.003	4.499	0.501	 H	1	CV1	0.000	
1044	   D	-5.997	5.499	0.501	 H	1	CV1	0.000	
1045	   D	-4.997	5.499	0.501	 H	1	CV1	0.000	
1046	   D	-3.997	5.499	0.501	 H	1	CV1	0.000	
1047	   D	-2.997	5.499	0.501	 H	1	CV1	0.000	
1048	   D	-1.997	5.499	0.501	 H	1	CV1	0.000	
1049	   D	-0.997	5.499	0.501	 H	1	CV1	0.000	
1050	   D	0.003	5.499	0.501	 H	1	CV1	0.000	
1051	   D	1.003	5.499	0.501	 H	1	CV1	0.000	
1052	   D	2.003	5.499	0.501	 H	1	CV1	0.000	
1053	   D	3.003	5.499	0.501	 H	1	CV1	0.000	
1054	   D	4.003	5.499	0.501	 H	1	CV1	0.000	
1055	   D	5.003	5.499	0.501	 H	1	CV1	0.000	
1056	   D	6.003	5.499	0.501	 H	1	CV1	0.000	
1057	   D	7.003	5.499	0.501	 H	1	CV1	0.000	
1058	   D	-6.997	6.499	0.501	 H	1	CV1	0.000	
1059	   D	-5.997	6.499	0.501	 H	1	CV1	0.000	
1060	   D	-2.997	6.499	0.501	 H	1	CV1	0.000	
1061	   D	-1.997	6.499	0.501	 H	1	CV1	0.000	
1062	   D	3.003	6.499	0.501	 H	1	CV1	0.000	
1063	   D	4.003	6.499	0.501	 H	1	CV1	0.000	
1064	   D	5.003	6.499	0.501	 H	1	CV1	0.000	
1065	   D	6.003	6.499	0.501	 H	1	CV1	0.000	
1066	   D	7.003	6.499	0.501	 H	1	CV1	0.000	
1067	   D	-6.997	7.499	0.501	 H	1	CV1	0.000	
1068	   D	6.003	7.499	0.501	 H	1	CV1	0.000	
1069	   D	7.003	7.499	0.501	 H	1	CV1	0.000	
1070	   D	-1.997	-6.501	1.501	 H	1	CV1	0.000	
1071	   D	3.003	-6.501	1.501	 H	1	CV1	0.000	
1072	   D	4.003	-6.501	1.501	 H	1	CV1	0.000	
1073	   D	5.003	-6.501	1.501	 H	1	CV1	0.000	
1074	   D	6.003	-6.501	1.501	 H	1	CV1	0.000	
1075	   D	-5.997	-5.501	1.501	 H	1	CV1	0.000	
1076	   D	-4.997	-5.501	1.501	 H	1	CV1	0.000	
1077	   D	-3.997	-5.501	1.501	 H	1	CV1	0.000	
1078	   D	-2.997	-5.501	1.501	 H	1	CV1	0.000	
1079	   D	-1.997	-5.501	1.501	 H	1	CV1	0.000	
1080	   D	-0.997	-5.501	1.501	 H	1	CV1	0.000	
1081	   D	0.003	-5.501	1.501	 H	1	CV1	0.000	
1082	   D	1.003	-5.501	1.501	 H	1	CV1	0.000	
1083	   D	2.003	-5.501	1.501	 H	1	CV1	0.000	
1084	   D	3.003	-5.501	1.501	 H	1	CV1	0.000	
1085	   D	4.003	-5.501	1.501	 H	1	CV1	0.000	
1086	   D	5.003	-5.501	1.501	 H	1	CV1	0.000	
1087	   D	-5.997	-4.501	1.501	 H	1	CV1	0.000	
1088	   D	-4.997	-4.501	1.501	 H	1	CV1	0.000	
1089	   D	-3.997	-4.501	1.501	 H	1	CV1	0.000	
1090	   D	-2.997	-4.501	1.501	 H	1	CV1	0.000	
1091	   D	-1.997	-4.501	1.501	 H	1	CV1	0.000	
1092	   D	-0.997	-4.501	1.501	 H	1	CV1	0.000	
1093	   D	0.003	-4.501	1.501	 H	1	CV1	0.000	
1094	   D	1.003	-4.501	1.501	 H	1	CV1	0.000	
1095	   D	2.003	-4.501	1.501	 H	1	CV1	0.000	
1096	   D	3.003	-4.501	1.501	 H	1	CV1	0.000	
1097	   D	4.003	-4.501	1.501	 H	1	CV1	0.000	
1098	   D	5.003	-4.501	1.501	 H	1	CV1	0.000	
1099	   D	-5.997	-3.501	1.501	 H	1	CV1	0.000	
1100	   D	-4.997	-3.501	1.501	 H	1	CV1	0.000	
1101	   D	-3.997	-3.501	1.501	 H	1	CV1	0.000	
1102	   D	-2.997	-3.501	1.501	 H	1	CV1	0.000	
1103	   D	-1.997	-3.501	1.501	 H	1	CV1	0.000	
1104	   D	-0.997	-3.501	1.501	 H	1	CV1	0.000	
1105	   D	0.003	-3.501	1.501	 H	1	CV1	0.000	
1106	   D	1.003	-3.501	1.501	 H	1	CV1	0.000	
1107	   D	2.003	-3.501	1.501	 H	1	CV1	0.000	
1108	   D	3.003	-3.501	1.501	 H	1	CV1	0.000	
1109	   D	4.003	-3.501	1.501	 H	1	CV1	0.000	
1110	   D	5.003	-3.501	1.501	 H	1	CV1	0.000	
1111	   D	-6.997	-2.501	1.501	 H	1	CV1	0.000	
1112	   D	-5.997	-2.501	1.501	 H	1	CV1	0.000	
1113	   D	-4.997	-2.501	1.501	 H	1	CV1	0.000	
1114	   D	-3.997	-2.501	1.501	 H	1	CV1	0.000	
1115	   D	-2.997	-2.501	1.501	 H	1	CV1	0.000	
1116	   D	-1.997	-2.501	1.501	 H	1	CV1	0.000	
1117	   D	-0.997	-2.501	1.501	 H	1	CV1	0.000	
1118	   D	0.003	-2.501	1.501	 H	1	CV1	0.000	
1119	   D	1.003	-2.501	1.501	 H	1	CV1	0.000	
1120	   D	2.003	-2.501	1.501	 H	1	CV1	0.000	
1121	   D	3.003	-2.501	1.501	 H	1	CV1	0.000	
1122	   D	4.003	-2.501	1.501	 H	1	CV1	0.000	
1123	   D	5.003	-2.501	1.501	 H	1	CV1	0.000	
1124	   D	6.003	-2.501	1.501	 H	1	CV1	0.000	
1125	   D	-6.997	-1.501	1.501	 H	1	CV1	0.000	
1126	   D	-5.997	-1.501	1.501	 H	1	CV1	0.000	
1127	   D	-4.997	-1.501	1.501	 H	1	CV1	0.000	
1128	   D	-3.997	-1.501	1.501	 H	1	CV1	0.000	
1129	   D	-2.997	-1.501	1.501	 H	1	CV1	0.000	
1130	   D	-1.997	-1.501	1.501	 H	1	CV1	0.000	
1131	   D	-0.997	-1.501	1.501	 H	1	CV1	0.000	
1132	   D	0.003	-1.501	1.501	 H	1	CV1	0.000	
1133	   D	1.003	-1.501	1.501	 H	1	CV1	0.000	
1134	   D	2.003	-1.501	1.501	 H	1	CV1	0.000	
1135	   D	3.003	-1.501	1.501	 H	1	CV1	0.000	
1136	   D	4.003	-1.501	1.501	 H	1	CV1	0.000	
1137	   D	5.003	-1.501	1.501	 H	1	CV1	0.000	
1138	   D	6.003	-1.501	1.501	 H	1	CV1	0.000	
1139	   D	7.003	-1.501	1.501	 H	1	CV1	0.000	
1140	   D	-5.997	-0.501	1.501	 H	1	CV1	0.000	
1141	   D	-4.997	-0.501	1.501	 H	1	CV1	0.000	
1142	   D	-3.997	-0.501	1.501	 H	1	CV1	0.000	
1143	   D	-2.997	-0.501	1.501	 H	1	CV1	0.000	
1144	   D	-1.997	-0.501	1.501	 H	1	CV1	0.000	
1145	   D	-0.997	-0.501	1.501	 H	1	CV1	0.000	
1146	   D	0.003	-0.501	1.501	 H	1	CV1	0.000	
1147	   D	1.003	-0.501	1.501	 H	1	CV1	0.000	
1148	   D	2.003	-0.501	1.501	 H	1	CV1	0.000	
1149	   D	3.003	-0.501	1.501	 H	1	CV1	0.000	
1150	   D	4.003	-0.501	1.501	 H	1	CV1	0.000	
1151	   D	5.003	-0.501	1.501	 H	1	CV1	0.000	
1152	   D	6.003	-0.501	1.501	 H	1	CV1	0.000	
1153	   D	7.003	-0.501	1.501	 H	1	CV1	0.000	
1154	   D	-6.997	0.499	1.501	 H	1	CV1	0.000	
1155	   D	-5.997	0.499	1.501	 H	1	CV1	0.000	
1156	   D	-4.997	0.499	1.501	 H	1	CV1	0.000	
1157	   D	-3.997	0.499	1.501	 H	1	CV1	0.000	
1158	   D	-2.997	0.499	1.501	 H	1	CV1	0.000	
1159	   D	-1.997	0.499	1.501	 H	1	CV1	0.000	
1160	   D	-0.997	0.499	1.501	 H	1	CV1	0.000	
1161	   D	0.003	0.499	1.501	 H	1	CV1	0.000	
1162	   D	1.003	0.499	1.501	 H	1	CV1	0.000	
1163	   D	2.003	0.499	1.501	 H	1	CV1	0.000	
1164	   D	3.003	0.499	1.501	 H	1	CV1	0.000	
1165	   D	4.003	0.499	1.501	 H	1	CV1	0.000	
1166	   D	5.003	0.499	1.501	 H	1	CV1	0.000	
1167	   D	6.003	0.499	1.501	 H	1	CV1	0.000	
1168	   D	-6.997	1.499	1.501	 H	1	CV1	0.000	
1169	   D	-5.997	1.499	1.501	 H	1	CV1	0.000	
1170	   D	-4.997	1.499	1.501	 H	1	CV1	0.000	
1171	   D	-3.997	1.499	1.501	 H	1	CV1	0.000	
1172	   D	-2.997	1.499	1.501	 H	1	CV1	0.000	
1173	   D	-1.997	1.499	1.501	 H	1	CV1	0.000	
1174	   D	-0.997	1.499	1.501	 H	1	CV1	0.000	
1175	   D	0.003	1.499	1.501	 H	1	CV1	0.000	
1176	   D	1.003	1.499	1.501	 H	1	CV1	0.000	
1177	   D	2.003	1.499	1.501	 H	1	CV1	0.000	
1178	   D	3.003	1.499	1.501	 H	1	CV1	0.000	
1179	   D	4.003	1.499	1.501	 H	1	CV1	0.000	
1180	   D	5.003	1.499	1.501	 H	1	CV1	0.000	
1181	   D	6.003	1.499	1.501	 H	1	CV1	0.000	
1182	   D	7.003	1.499	1.501	 H	1	CV1	0.000	
1183	   D	-5.997	2.499	1.501	 H	1	CV1	0.000	
1184	   D	-4.997	2.499	1.501	 H	1	CV1	0.000	
1185	   D	-3.997	2.499	1.501	 H	1	CV1	0.000	
1186	   D	-2.997	2.499	1.501	 H	1	CV1	0.000	
1187	   D	-1.997	2.499	1.501	 H	1	CV1	0.000	
1188	   D	-0.997	2.499	1.501	 H	1	CV1	0.000	
1189	   D	0.003	2.499	1.501	 H	1	CV1	0.000	
1190	   D	1.003	2.499	1.501	 H	1	CV1	0.000	
1191	   D	2.003	2.499	1.501	 H	1	CV1	0.000	
1192	   D	3.003	2.499	1.501	 H	1	CV1	0.000	
1193	   D	4.003	2.499	1.501	 H	1	CV1	0.000	
1194	   D	5.003	2.499	1.501	 H	1	CV1	0.000	
1195	   D	6.003	2.499	1.501	 H	1	CV1	0.000	
1196	   D	7.003	2.499	1.501	 H	1	CV1	0.000	
1197	   D	-4.997	3.499	1.501	 H	1	CV1	0.000	
1198	   D	-3.997	3.499	1.501	 H	1	CV1	0.000	
1199	   D	-2.997	3.499	1.501	 H	1	CV1	0.000	
1200	   D	-1.997	3.499	1.501	 H	1	CV1	0.000	
1201	   D	-0.997	3.499	1.501	 H	1	CV1	0.000	
1202	   D	0.003	3.499	1.501	 H	1	CV1	0.000	
1203	   D	1.003	3.499	1.501	 H	1	CV1	0.000	
1204	   D	2.003	3.499	1.501	 H	1	CV1	0.000	
1205	   D	3.003	3.499	1.501	 H	1	CV1	0.000	
1206	   D	4.003	3.499	1.501	 H	1	CV1	0.000	
1207	   D	5.003	3.499	1.501	 H	1	CV1	0.000	
1208	   D	6.003	3.499	1.501	 H	1	CV1	0.000	
1209	   D	7.003	3.499	1.501	 H	1	CV1	0.000	
1210	   D	-4.997	4.499	1.501	 H	1	CV1	0.000	
1211	   D	-3.997	4.499	1.501	 H	1	CV1	0.000	
1212	   D	-2.997	4.499	1.501	 H	1	CV1	0.000	
1213	   D	-1.997	4.499	1.501	 H	1	CV1	0.000	
1214	   D	-0.997	4.499	1.501	 H	1	CV1	0.000	
1215	   D	0.003	4.499	1.501	 H	1	CV1	0.000	
1216	   D	1.003	4.499	1.501	 H	1	CV1	0.000	
1217	   D	2.003	4.499	1.501	 H	1	CV1	0.000	
1218	   D	3.003	4.499	1.501	 H	1	CV1	0.000	
1219	   D	4.003	4.499	1.501	 H	1	CV1	0.000	
1220	   D	5.003	4.499	1.501	 H	1	CV1	0.000	
1221	   D	6.003	4.499	1.501	 H	1	CV1	0.000	
1222	   D	-4.997	5.499	1.501	 H	1	CV1	0.000	
1223	   D	-3.997	5.499	1.501	 H	1	CV1	0.000	
1224	   D	-2.997	5.499	1.501	 H	1	CV1	0.000	
1225	   D	-1.997	5.499	1.501	 H	1	CV1	0.000	
1226	   D	-0.997	5.499	1.501	 H	1	CV1	0.000	
1227	   D	0.003	5.499	1.501	 H	1	CV1	0.000	
1228	   D	1.003	5.499	1.501	 H	1	CV1	0.000	
1229	   D	2.003	5.499	1.501	 H	1	CV1	0.000	
1230	   D	3.003	5.499	1.501	 H	1	CV1	0.000	
1231	   D	4.003	5.499	1.501	 H	1	CV1	0.000	
1232	   D	5.003	5.499	1.501	 H	1	CV1	0.000	
1233	   D	6.003	5.499	1.501	 H	1	CV1	0.000	
1234	   D	-1.997	6.499	1.501	 H	1	CV1	0.000	
1235	   D	-0.997	6.499	1.501	 H	1	CV1	0.000	
1236	   D	2.003	6.499	1.501	 H	1	CV1	0.000	
1237	   D	3.003	6.499	1.501	 H	1	CV1	0.000	
1238	   D	7.003	6.499	1.501	 H	1	CV1	0.000	
1239	   D	-1.997	7.499	1.501	 H	1	CV1	0.000	
1240	   D	-0.997	-6.501	2.501	 H	1	CV1	0.000	
1241	   D	2.003	-6.501	2.501	 H	1	CV1	0.000	
1242	   D	3.003	-6.501	2.501	 H	1	CV1	0.000	
1243	   D	-2.997	-5.501	2.501	 H	1	CV1	0.000	
1244	   D	-1.997	-5.501	2.501	 H	1	CV1	0.000	
1245	   D	-0.997	-5.501	2.501	 H	1	CV1	0.000	
1246	   D	0.003	-5.501	2.501	 H	1	CV1	0.000	
1247	   D	1.003	-5.501	2.501	 H	1	CV1	0.000	
1248	   D	2.003	-5.501	2.501	 H	1	CV1	0.000	
1249	   D	3.003	-5.501	2.501	 H	1	CV1	0.000	
1250	   D	4.003	-5.501	2.501	 H	1	CV1	0.000	
1251	   D	5.003	-5.501	2.501	 H	1	CV1	0.000	
1252	   D	-2.997	-4.501	2.501	 H	1	CV1	0.000	
1253	   D	-1.997	-4.501	2.501	 H	1	CV1	0.000	
1254	   D	-0.997	-4.501	2.501	 H	1	CV1	0.000	
1255	   D	0.003	-4.501	2.501	 H	1	CV1	0.000	
1256	   D	1.003	-4.501	2.501	 H	1	CV1	0.000	
1257	   D	2.003	-4.501	2.501	 H	1	CV1	0.000	
1258	   D	3.003	-4.501	2.501	 H	1	CV1	0.000	
1259	   D	4.003	-4.501	2.501	 H	1	CV1	0.000	
1260	   D	5.003	-4.501	2.501	 H	1	CV1	0.000	
1261	   D	-5.997	-3.501	2.501	 H	1	CV1	0.000	
1262	   D	-1.997	-3.501	2.501	 H	1	CV1	0.000	
1263	   D	-0.997	-3.501	2.501	 H	1	CV1	0.000	
1264	   D	0.003	-3.501	2.501	 H	1	CV1	0.000	
1265	   D	1.003	-3.501	2.501	 H	1	CV1	0.000	
1266	   D	2.003	-3.501	2.501	 H	1	CV1	0.000	
1267	   D	3.003	-3.501	2.501	 H	1	CV1	0.000	
1268	   D	4.003	-3.501	2.501	 H	1	CV1	0.000	
1269	   D	5.003	-3.501	2.501	 H	1	CV1	0.000	
1270	   D	-6.997	-2.501	2.501	 H	1	CV1	0.000	
1271	   D	-5.997	-2.501	2.501	 H	1	CV1	0.000	
1272	   D	-4.997	-2.501	2.501	 H	1	CV1	0.000	
1273	   D	-2.997	-2.501	2.501	 H	1	CV1	0.000	
1274	   D	-1.997	-2.501	2.501	 H	1	CV1	0.000	
1275	   D	-0.997	-2.501	2.501	 H	1	CV1	0.000	
1276	   D	0.003	-2.501	2.501	 H	1	CV1	0.000	
1277	   D	1.003	-2.501	2.501	 H	1	CV1	0.000	
1278	   D	2.003	-2.501	2.501	 H	1	CV1	0.000	
1279	   D	3.003	-2.501	2.501	 H	1	CV1	0.000	
1280	   D	4.003	-2.501	2.501	 H	1	CV1	0.000	
1281	   D	5.003	-2.501	2.501	 H	1	CV1	0.000	
1282	   D	-6.997	-1.501	2.501	 H	1	CV1	0.000	
1283	   D	-5.997	-1.501	2.501	 H	1	CV1	0.000	
1284	   D	-4.997	-1.501	2.501	 H	1	CV1	0.000	
1285	   D	-3.997	-1.501	2.501	 H	1	CV1	0.000	
1286	   D	-2.997	-1.501	2.501	 H	1	CV1	0.000	
1287	   D	-1.997	-1.501	2.501	 H	1	CV1	0.000	
1288	   D	-0.997	-1.501	2.501	 H	1	CV1	0.000	
1289	   D	0.003	-1.501	2.501	 H	1	CV1	0.000	
1290	   D	1.003	-1.501	2.501	 H	1	CV1	0.000	
1291	   D	2.003	-1.501	2.501	 H	1	CV1	0.000	
1292	   D	3.003	-1.501	2.501	 H	1	CV1	0.000	
1293	   D	4.003	-1.501	2.501	 H	1	CV1	0.000	
1294	   D	5.003	-1.501	2.501	 H	1	CV1	0.000	
1295	   D	6.003	-1.501	2.501	 H	1	CV1	0.000	
1296	   D	-6.997	-0.501	2.501	 H	1	CV1	0.000	
1297	   D	-5.997	-0.501	2.501	 H	1	CV1	0.000	
1298	   D	-4.997	-0.501	2.501	 H	1	CV1	0.000	
1299	   D	-3.997	-0.501	2.501	 H	1	CV1	0.000	
1300	   D	-2.997	-0.501	2.501	 H	1	CV1	0.000	
1301	   D	-1.997	-0.501	2.501	 H	1	CV1	0.000	
1302	   D	-0.997	-0.501	2.501	 H	1	CV1	0.000	
1303	   D	0.003	-0.501	2.501	 H	1	CV1	0.000	
1304	   D	1.003	-0.501	2.501	 H	1	CV1	0.000	
1305	   D	2.003	-0.501	2.501	 H	1	CV1	0.000	
1306	   D	3.003	-0.501	2.501	 H	1	CV1	0.000	
1307	   D	4.003	-0.501	2.501	 H	1	CV1	0.000	
1308	   D	5.003	-0.501	2.501	 H	1	CV1	0.000	
1309	   D	6.003	-0.501	2.501	 H	1	CV1	0.000	
1310	   D	7.003	-0.501	2.501	 H	1	CV1	0.000	
1311	   D	-7.997	0.499	2.501	 H	1	CV1	0.000	
1312	   D	-6.997	0.499	2.501	 H	1	CV1	0.000	
1313	   D	-5.997	0.499	2.501	 H	1	CV1	0.000	
1314	   D	-4.997	0.499	2.501	 H	1	CV1	0.000	
1315	   D	-3.997	0.499	2.501	 H	1	CV1	0.000	
1316	   D	-2.997	0.499	2.501	 H	1	CV1	0.000	
1317	   D	-1.997	0.499	2.501	 H	1	CV1	0.000	
1318	   D	-0.997	0.499	2.501	 H	1	CV1	0.000	
1319	   D	0.003	0.499	2.501	 H	1	CV1	0.000	
1320	   D	1.003	0.499	2.501	 H	1	CV1	0.000	
1321	   D	2.003	0.499	2.501	 H	1	CV1	0.000	
1322	   D	3.003	0.499	2.501	 H	1	CV1	0.000	
1323	   D	4.003	0.499	2.501	 H	1	CV1	0.000	
1324	   D	5.003	0.499	2.501	 H	1	CV1	0.000	
1325	   D	6.003	0.499	2.501	 H	1	CV1	0.000	
1326	   D	7.003	0.499	2.501	 H	1	CV1	0.000	
1327	   D	-5.997	1.499	2.501	 H	1	CV1	0.000	
1328	   D	-4.997	1.499	2.501	 H	1	CV1	0.000	
1329	   D	-3.997	1.499	2.501	 H	1	CV1	0.000	
1330	   D	-2.997	1.499	2.501	 H	1	CV1	0.000	
1331	   D	-1.997	1.499	2.501	 H	1	CV1	0.000	
1332	   D	-0.997	1.499	2.501	 H	1	CV1	0.000	
1333	   D	0.003	1.499	2.501	 H	1	CV1	0.000	
1334	   D	1.003	1.499	2.501	 H	1	CV1	0.000	
1335	   D	2.003	1.499	2.501	 H	1	CV1	0.000	
1336	   D	3.003	1.499	2.501	 H	1	CV1	0.000	
1337	   D	4.003	1.499	2.501	 H	1	CV1	0.000	
1338	   D	5.003	1.499	2.501	 H	1	CV1	0.000	
1339	   D	6.003	1.499	2.501	 H	1	CV1	0.000	
1340	   D	7.003	1.499	2.501	 H	1	CV1	0.000	
1341	   D	-5.997	2.499	2.501	 H	1	CV1	0.000	
1342	   D	-2.997	2.499	2.501	 H	1	CV1	0.000	
1343	   D	-1.997	2.499	2.501	 H	1	CV1	0.000	
1344	   D	-0.997	2.499	2.501	 H	1	CV1	0.000	
1345	   D	0.003	2.499	2.501	 H	1	CV1	0.000	
1346	   D	1.003	2.499	2.501	 H	1	CV1	0.000	
1347	   D	2.003	2.499	2.501	 H	1	CV1	0.000	
1348	   D	3.003	2.499	2.501	 H	1	CV1	0.000	
1349	   D	4.003	2.499	2.501	 H	1	CV1	0.000	
1350	   D	5.003	2.499	2.501	 H	1	CV1	0.000	
1351	   D	6.003	2.499	2.501	 H	1	CV1	0.000	
1352	   D	7.003	2.499	2.501	 H	1	CV1	0.000	
1353	   D	-2.997	3.499	2.501	 H	1	CV1	0.000	
1354	   D	-1.997	3.499	2.501	 H	1	CV1	0.000	
1355	   D	-0.997	3.499	2.501	 H	1	CV1	0.000	
1356	   D	0.003	3.499	2.501	 H	1	CV1	0.000	
1357	   D	1.003	3.499	2.501	 H	1	CV1	0.000	
1358	   D	2.003	3.499	2.501	 H	1	CV1	0.000	
1359	   D	3.003	3.499	2.501	 H	1	CV1	0.000	
1360	   D	4.003	3.499	2.501	 H	1	CV1	0.000	
1361	   D	5.003	3.499	2.501	 H	1	CV1	0.000	
1362	   D	6.003	3.499	2.501	 H	1	CV1	0.000	
1363	   D	-2.997	4.499	2.501	 H	1	CV1	0.000	
1364	   D	-1.997	4.499	2.501	 H	1	CV1	0.000	
1365	   D	-0.997	4.499	2.501	 H	1	CV1	0.000	
1366	   D	0.003	4.499	2.501	 H	1	CV1	0.000	
1367	   D	1.003	4.499	2.501	 H	1	CV1	0.000	
1368	   D	2.003	4.499	2.501	 H	1	CV1	0.000	
1369	   D	3.003	4.499	2.501	 H	1	CV1	0.000	
1370	   D	4.003	4.499	2.501	 H	1	CV1	0.000	
1371	   D	5.003	4.499	2.501	 H	1	CV1	0.000	
1372	   D	6.003	4.499	2.501	 H	1	CV1	0.000	
1373	   D	-3.997	5.499	2.501	 H	1	CV1	0.000	
1374	   D	-2.997	5.499	2.501	 H	1	CV1	0.000	
1375	   D	-1.997	5.499	2.501	 H	1	CV1	0.000	
1376	   D	-0.997	5.499	2.501	 H	1	CV1	0.000	
1377	   D	0.003	5.499	2.501	 H	1	CV1	0.000	
1378	   D	1.003	5.499	2.501	 H	1	CV1	0.000	
1379	   D	2.003	5.499	2.501	 H	1	CV1	0.000	
1380	   D	3.003	5.499	2.501	 H	1	CV1	0.000	
1381	   D	4.003	5.499	2.501	 H	1	CV1	0.000	
1382	   D	5.003	5.499	2.501	 H	1	CV1	0.000	
1383	   D	6.003	5.499	2.501	 H	1	CV1	0.000	
1384	   D	-0.997	6.499	2.501	 H	1	CV1	0.000	
1385	   D	0.003	6.499	2.501	 H	1	CV1	0.000	
1386	   D	1.003	6.499	2.501	 H	1	CV1	0.000	
1387	   D	2.003	6.499	2.501	 H	1	CV1	0.000	
1388	   D	2.003	7.499	2.501	 H	1	CV1	0.000	
1389	   D	-0.997	-7.501	3.501	 H	1	CV1	0.000	
1390	   D	0.003	-7.501	3.501	 H	1	CV1	0.000	
1391	   D	1.003	-7.501	3.501	 H	1	CV1	0.000	
1392	   D	2.003	-7.501	3.501	 H	1	CV1	0.000	
1393	   D	-0.997	-6.501	3.501	 H	1	CV1	0.000	
1394	   D	0.003	-6.501	3.501	 H	1	CV1	0.000	
1395	   D	1.003	-6.501	3.501	 H	1	CV1	0.000	
1396	   D	2.003	-6.501	3.501	 H	1	CV1	0.000	
1397	   D	3.003	-6.501	3.501	 H	1	CV1	0.000	
1398	   D	-0.997	-5.501	3.501	 H	1	CV1	0.000	
1399	   D	0.003	-5.501	3.501	 H	1	CV1	0.000	
1400	   D	1.003	-5.501	3.501	 H	1	CV1	0.000	
1401	   D	2.003	-5.501	3.501	 H	1	CV1	0.000	
1402	   D	3.003	-5.501	3.501	 H	1	CV1	0.000	
1403	   D	4.003	-5.501	3.501	 H	1	CV1	0.000	
1404	   D	-0.997	-4.501	3.501	 H	1	CV1	0.000	
1405	   D	0.003	-4.501	3.501	 H	1	CV1	0.000	
1406	   D	1.003	-4.501	3.501	 H	1	CV1	0.000	
1407	   D	2.003	-4.501	3.501	 H	1	CV1	0.000	
1408	   D	3.003	-4.501	3.501	 H	1	CV1	0.000	
1409	   D	-1.997	-3.501	3.501	 H	1	CV1	0.000	
1410	   D	-0.997	-3.501	3.501	 H	1	CV1	0.000	
1411	   D	0.003	-3.501	3.501	 H	1	CV1	0.000	
1412	   D	1.003	-3.501	3.501	 H	1	CV1	0.000	
1413	   D	2.003	-3.501	3.501	 H	1	CV1	0.000	
1414	   D	-5.997	-2.501	3.501	 H	1	CV1	0.000	
1415	   D	-1.997	-2.501	3.501	 H	1	CV1	0.000	
1416	   D	-0.997	-2.501	3.501	 H	1	CV1	0.000	
1417	   D	0.003	-2.501	3.501	 H	1	CV1	0.000	
1418	   D	1.003	-2.501	3.501	 H	1	CV1	0.000	
1419	   D	2.003	-2.501	3.501	 H	1	CV1	0.000	
1420	   D	-6.997	-1.501	3.501	 H	1	CV1	0.000	
1421	   D	-5.997	-1.501	3.501	 H	1	CV1	0.000	
1422	   D	-4.997	-1.501	3.501	 H	1	CV1	0.000	
1423	   D	-3.997	-1.501	3.501	 H	1	CV1	0.000	
1424	   D	-2.997	-1.501	3.501	 H	1	CV1	0.000	
1425	   D	-1.997	-1.501	3.501	 H	1	CV1	0.000	
1426	   D	-0.997	-1.501	3.501	 H	1	CV1	0.000	
1427	   D	0.003	-1.501	3.501	 H	1	CV1	0.000	
1428	   D	1.003	-1.501	3.501	 H	1	CV1	0.000	
1429	   D	2.003	-1.501	3.501	 H	1	CV1	0.000	
1430	   D	3.003	-1.501	3.501	 H	1	CV1	0.000	
1431	   D	5.003	-1.501	3.501	 H	1	CV1	0.000	
1432	   D	6.003	-1.501	3.501	 H	1	CV1	0.000	
1433	   D	-6.997	-0.501	3.501	 H	1	CV1	0.000	
1434	   D	-5.997	-0.501	3.501	 H	1	CV1	0.000	
1435	   D	-4.997	-0.501	3.501	 H	1	CV1	0.000	
1436	   D	-3.997	-0.501	3.501	 H	1	CV1	0.000	
1437	   D	-2.997	-0.501	3.501	 H	1	CV1	0.000	
1438	   D	-1.997	-0.501	3.501	 H	1	CV1	0.000	
1439	   D	-0.997	-0.501	3.501	 H	1	CV1	0.000	
1440	   D	0.003	-0.501	3.501	 H	1	CV1	0.000	
1441	   D	1.003	-0.501	3.501	 H	1	CV1	0.000	
1442	   D	2.003	-0.501	3.501	 H	1	CV1	0.000	
1443	   D	3.003	-0.501	3.501	 H	1	CV1	0.000	
1444	   D	4.003	-0.501	3.501	 H	1	CV1	0.000	
1445	   D	5.003	-0.501	3.501	 H	1	CV1	0.000	
1446	   D	6.003	-0.501	3.501	 H	1	CV1	0.000	
1447	   D	7.003	-0.501	3.501	 H	1	CV1	0.000	
1448	   D	-6.997	0.499	3.501	 H	1	CV1	0.000	
1449	   D	-5.997	0.499	3.501	 H	1	CV1	0.000	
1450	   D	-4.997	0.499	3.501	 H	1	CV1	0.000	
1451	   D	-3.997	0.499	3.501	 H	1	CV1	0.000	
1452	   D	-2.997	0.499	3.501	 H	1	CV1	0.000	
1453	   D	-1.997	0.499	3.501	 H	1	CV1	0.000	
1454	   D	-0.997	0.499	3.501	 H	1	CV1	0.000	
1455	   D	0.003	0.499	3.501	 H	1	CV1	0.000	
1456	   D	1.003	0.499	3.501	 H	1	CV1	0.000	
1457	   D	2.003	0.499	3.501	 H	1	CV1	0.000	
1458	   D	3.003	0.499	3.501	 H	1	CV1	0.000	
1459	   D	4.003	0.499	3.501	 H	1	CV1	0.000	
1460	   D	5.003	0.499	3.501	 H	1	CV1	0.000	
1461	   D	6.003	0.499	3.501	 H	1	CV1	0.000	
1462	   D	7.003	0.499	3.501	 H	1	CV1	0.000	
1463	   D	-5.997	1.499	3.501	 H	1	CV1	0.000	
1464	   D	-1.997	1.499	3.501	 H	1	CV1	0.000	
1465	   D	-0.997	1.499	3.501	 H	1	CV1	0.000	
1466	   D	0.003	1.499	3.501	 H	1	CV1	0.000	
1467	   D	1.003	1.499	3.501	 H	1	CV1	0.000	
1468	   D	2.003	1.499	3.501	 H	1	CV1	0.000	
1469	   D	3.003	1.499	3.501	 H	1	CV1	0.000	
1470	   D	4.003	1.499	3.501	 H	1	CV1	0.000	
1471	   D	5.003	1.499	3.501	 H	1	CV1	0.000	
1472	   D	6.003	1.499	3.501	 H	1	CV1	0.000	
1473	   D	7.003	1.499	3.501	 H	1	CV1	0.000	
1474	   D	8.003	1.499	3.501	 H	1	CV1	0.000	
1475	   D	-1.997	2.499	3.501	 H	1	CV1	0.000	
1476	   D	-0.997	2.499	3.501	 H	1	CV1	0.000	
1477	   D	0.003	2.499	3.501	 H	1	CV1	0.000	
1478	   D	1.003	2.499	3.501	 H	1	CV1	0.000	
1479	   D	2.003	2.499	3.501	 H	1	CV1	0.000	
1480	   D	3.003	2.499	3.501	 H	1	CV1	0.000	
1481	   D	4.003	2.499	3.501	 H	1	CV1	0.000	
1482	   D	5.003	2.499	3.501	 H	1	CV1	0.000	
1483	   D	6.003	2.499	3.501	 H	1	CV1	0.000	
1484	   D	7.003	2.499	3.501	 H	1	CV1	0.000	
1485	   D	-1.997	3.499	3.501	 H	1	CV1	0.000	
1486	   D	-0.997	3.499	3.501	 H	1	CV1	0.000	
1487	   D	0.003	3.499	3.501	 H	1	CV1	0.000	
1488	   D	1.003	3.499	3.501	 H	1	CV1	0.000	
1489	   D	2.003	3.499	3.501	 H	1	CV1	0.000	
1490	   D	4.003	3.499	3.501	 H	1	CV1	0.000	
1491	   D	5.003	3.499	3.501	 H	1	CV1	0.000	
1492	   D	6.003	3.499	3.501	 H	1	CV1	0.000	
1493	   D	-1.997	4.499	3.501	 H	1	CV1	0.000	
1494	   D	-0.997	4.499	3.501	 H	1	CV1	0.000	
1495	   D	0.003	4.499	3.501	 H	1	CV1	0.000	
1496	   D	1.003	4.499	3.501	 H	1	CV1	0.000	
1497	   D	2.003	4.499	3.501	 H	1	CV1	0.000	
1498	   D	-2.997	5.499	3.501	 H	1	CV1	0.000	
1499	   D	-1.997	5.499	3.501	 H	1	CV1	0.000	
1500	   D	-0.997	5.499	3.501	 H	1	CV1	0.000	
1501	   D	0.003	5.499	3.501	 H	1	CV1	0.000	
1502	   D	1.003	5.499	3.501	 H	1	CV1	0.000	
1503	   D	2.003	5.499	3.501	 H	1	CV1	0.000	
1504	   D	3.003	5.499	3.501	 H	1	CV1	0.000	
1505	   D	-0.997	6.499	3.501	 H	1	CV1	0.000	
1506	   D	0.003	6.499	3.501	 H	1	CV1	0.000	
1507	   D	1.003	6.499	3.501	 H	1	CV1	0.000	
1508	   D	2.003	6.499	3.501	 H	1	CV1	0.000	
1509	   D	-0.997	7.499	3.501	 H	1	CV1	0.000	
1510	   D	1.003	7.499	3.501	 H	1	CV1	0.000	
1511	   D	-0.997	-6.501	4.501	 H	1	CV1	0.000	
1512	   D	0.003	-6.501	4.501	 H	1	CV1	0.000	
1513	   D	1.003	-6.501	4.501	 H	1	CV1	0.000	
1514	   D	2.003	-6.501	4.501	 H	1	CV1	0.000	
1515	   D	3.003	-6.501	4.501	 H	1	CV1	0.000	
1516	   D	0.003	-5.501	4.501	 H	1	CV1	0.000	
1517	   D	1.003	-5.501	4.501	 H	1	CV1	0.000	
1518	   D	2.003	-5.501	4.501	 H	1	CV1	0.000	
1519	   D	0.003	-4.501	4.501	 H	1	CV1	0.000	
1520	   D	1.003	-4.501	4.501	 H	1	CV1	0.000	
1521	   D	2.003	-4.501	4.501	 H	1	CV1	0.000	
1522	   D	-0.997	-3.501	4.501	 H	1	CV1	0.000	
1523	   D	0.003	-3.501	4.501	 H	1	CV1	0.000	
1524	   D	1.003	-3.501	4.501	 H	1	CV1	0.000	
1525	   D	2.003	-3.501	4.501	 H	1	CV1	0.000	
1526	   D	-1.997	-2.501	4.501	 H	1	CV1	0.000	
1527	   D	-0.997	-2.501	4.501	 H	1	CV1	0.000	
1528	   D	0.003	-2.501	4.501	 H	1	CV1	0.000	
1529	   D	1.003	-2.501	4.501	 H	1	CV1	0.000	
1530	   D	-5.997	-1.501	4.501	 H	1	CV1	0.000	
1531	   D	-4.997	-1.501	4.501	 H	1	CV1	0.000	
1532	   D	-2.997	-1.501	4.501	 H	1	CV1	0.000	
1533	   D	-1.997	-1.501	4.501	 H	1	CV1	0.000	
1534	   D	-0.997	-1.501	4.501	 H	1	CV1	0.000	
1535	   D	0.003	-1.501	4.501	 H	1	CV1	0.000	
1536	   D	1.003	-1.501	4.501	 H	1	CV1	0.000	
1537	   D	2.003	-1.501	4.501	 H	1	CV1	0.000	
1538	   D	-5.997	-0.501	4.501	 H	1	CV1	0.000	
1539	   D	-4.997	-0.501	4.501	 H	1	CV1	0.000	
1540	   D	-3.997	-0.501	4.501	 H	1	CV1	0.000	
1541	   D	-2.997	-0.501	4.501	 H	1	CV1	0.000	
1542	   D	-1.997	-0.501	4.501	 H	1	CV1	0.000	
1543	   D	-0.997	-0.501	4.501	 H	1	CV1	0.000	
1544	   D	0.003	-0.501	4.501	 H	1	CV1	0.000	
1545	   D	1.003	-0.501	4.501	 H	1	CV1	0.000	
1546	   D	2.003	-0.501	4.501	 H	1	CV1	0.000	
1547	   D	3.003	-0.501	4.501	 H	1	CV1	0.000	
1548	   D	4.003	-0.501	4.501	 H	1	CV1	0.000	
1549	   D	5.003	-0.501	4.501	 H	1	CV1	0.000	
1550	   D	6.003	-0.501	4.501	 H	1	CV1	0.000	
1551	   D	-5.997	0.499	4.501	 H	1	CV1	0.000	
1552	   D	-4.997	0.499	4.501	 H	1	CV1	0.000	
1553	   D	-3.997	0.499	4.501	 H	1	CV1	0.000	
1554	   D	-2.997	0.499	4.501	 H	1	CV1	0.000	
1555	   D	-1.997	0.499	4.501	 H	1	CV1	0.000	
1556	   D	-0.997	0.499	4.501	 H	1	CV1	0.000	
1557	   D	0.003	0.499	4.501	 H	1	CV1	0.000	
1558	   D	1.003	0.499	4.501	 H	1	CV1	0.000	
1559	   D	2.003	0.499	4.501	 H	1	CV1	0.000	
1560	   D	3.003	0.499	4.501	 H	1	CV1	0.000	
1561	   D	4.003	0.499	4.501	 H	1	CV1	0.000	
1562	   D	5.003	0.499	4.501	 H	1	CV1	0.000	
1563	   D	6.003	0.499	4.501	 H	1	CV1	0.000	
1564	   D	-1.997	1.499	4.501	 H	1	CV1	0.000	
1565	   D	-0.997	1.499	4.501	 H	1	CV1	0.000	
1566	   D	0.003	1.499	4.501	 H	1	CV1	0.000	
1567	   D	1.003	1.499	4.501	 H	1	CV1	0.000	
1568	   D	2.003	1.499	4.501	 H	1	CV1	0.000	
1569	   D	3.003	1.499	4.501	 H	1	CV1	0.000	
1570	   D	4.003	1.499	4.501	 H	1	CV1	0.000	
1571	   D	5.003	1.499	4.501	 H	1	CV1	0.000	
1572	   D	6.003	1.499	4.501	 H	1	CV1	0.000	
1573	   D	7.003	1.499	4.501	 H	1	CV1	0.000	
1574	   D	-1.997	2.499	4.501	 H	1	CV1	0.000	
1575	   D	-0.997	2.499	4.501	 H	1	CV1	0.000	
1576	   D	0.003	2.499	4.501	 H	1	CV1	0.000	
1577	   D	1.003	2.499	4.501	 H	1	CV1	0.000	
1578	   D	2.003	2.499	4.501	 H	1	CV1	0.000	
1579	   D	4.003	2.499	4.501	 H	1	CV1	0.000	
1580	   D	5.003	2.499	4.501	 H	1	CV1	0.000	
1581	   D	7.003	2.499	4.501	 H	1	CV1	0.000	
1582	   D	-1.997	3.499	4.501	 H	1	CV1	0.000	
1583	   D	-0.997	3.499	4.501	 H	1	CV1	0.000	
1584	   D	0.003	3.499	4.501	 H	1	CV1	0.000	
1585	   D	1.003	3.499	4.501	 H	1	CV1	0.000	
1586	   D	-0.997	4.499	4.501	 H	1	CV1	0.000	
1587	   D	0.003	4.499	4.501	 H	1	CV1	0.000	
1588	   D	1.003	4.499	4.501	 H	1	CV1	0.000	
1589	   D	-1.997	5.499	4.501	 H	1	CV1	0.000	
1590	   D	-0.997	5.499	4.501	 H	1	CV1	0.000	
1591	   D	0.003	5.499	4.501	 H	1	CV1	0.000	
1592	   D	1.003	5.499	4.501	 H	1	CV1	0.000	
1593	   D	-1.997	6.499	4.501	 H	1	CV1	0.000	
1594	   D	-0.997	6.499	4.501	 H	1	CV1	0.000	
1595	   D	0.003	6.499	4.501	 H	1	CV1	0.000	
1596	   D	1.003	6.499	4.501	 H	1	CV1	0.000	
1597	   D	2.003	6.499	4.501	 H	1	CV1	0.000	
1598	   D	0.003	-5.501	5.501	 H	1	CV1	0.000	
1599	   D	1.003	-5.501	5.501	 H	1	CV1	0.000	
1600	   D	2.003	-5.501	5.501	 H	1	CV1	0.000	
1601	   D	0.003	-4.501	5.501	 H	1	CV1	0.000	
1602	   D	-0.997	-3.501	5.501	 H	1	CV1	0.000	
1603	   D	0.003	-3.501	5.501	 H	1	CV1	0.000	
1604	   D	-0.997	-2.501	5.501	 H	1	CV1	0.000	
1605	   D	0.003	-2.501	5.501	 H	1	CV1	0.000	
1606	   D	1.003	-2.501	5.501	 H	1	CV1	0.000	
1607	   D	-3.997	-1.501	5.501	 H	1	CV1	0.000	
1608	   D	-2.997	-1.501	5.501	 H	1	CV1	0.000	
1609	   D	-1.997	-1.501	5.501	 H	1	CV1	0.000	
1610	   D	-0.997	-1.501	5.501	 H	1	CV1	0.000	
1611	   D	0.003	-1.501	5.501	 H	1	CV1	0.000	
1612	   D	1.003	-1.501	5.501	 H	1	CV1	0.000	
1613	   D	2.003	-1.501	5.501	 H	1	CV1	0.000	
1614	   D	-2.997	-0.501	5.501	 H	1	CV1	0.000	
1615	   D	-1.997	-0.501	5.501	 H	1	CV1	0.000	
1616	   D	-0.997	-0.501	5.501	 H	1	CV1	0.000	
1617	   D	0.003	-0.501	5.501	 H	1	CV1	0.000	
1618	   D	1.003	-0.501	5.501	 H	1	CV1	0.000	
1619	   D	2.003	-0.501	5.501	 H	1	CV1	0.000	
1620	   D	3.003	-0.501	5.501	 H	1	CV1	0.000	
1621	   D	-3.997	0.499	5.501	 H	1	CV1	0.000	
1622	   D	-2.997	0.499	5.501	 H	1	CV1	0.000	
1623	   D	-1.997	0.499	5.501	 H	1	CV1	0.000	
1624	   D	-0.997	0.499	5.501	 H	1	CV1	0.000	
1625	   D	0.003	0.499	5.501	 H	1	CV1	0.000	
1626	   D	1.003	0.499	5.501	 H	1	CV1	0.000	
1627	   D	2.003	0.499	5.501	 H	1	CV1	0.000	
1628	   D	3.003	0.499	5.501	 H	1	CV1	0.000	
1629	   D	4.003	0.499	5.501	 H	1	CV1	0.000	
1630	   D	5.003	0.499	5.501	 H	1	CV1	0.000	
1631	   D	6.003	0.499	5.501	 H	1	CV1	0.000	
1632	   D	-1.997	1.499	5.501	 H	1	CV1	0.000	
1633	   D	-0.997	1.499	5.501	 H	1	CV1	0.000	
1634	   D	0.003	1.499	5.501	 H	1	CV1	0.000	
1635	   D	1.003	1.499	5.501	 H	1	CV1	0.000	
1636	   D	2.003	1.499	5.501	 H	1	CV1	0.000	
1637	   D	3.003	1.499	5.501	 H	1	CV1	0.000	
1638	   D	4.003	1.499	5.501	 H	1	CV1	0.000	
1639	   D	5.003	1.499	5.501	 H	1	CV1	0.000	
1640	   D	6.003	1.499	5.501	 H	1	CV1	0.000	
1641	   D	-1.997	2.499	5.501	 H	1	CV1	0.000	
1642	   D	-0.997	2.499	5.501	 H	1	CV1	0.000	
1643	   D	0.003	2.499	5.501	 H	1	CV1	0.000	
1644	   D	1.003	2.499	5.501	 H	1	CV1	0.000	
1645	   D	2.003	2.499	5.501	 H	1	CV1	0.000	
1646	   D	-0.997	3.499	5.501	 H	1	CV1	0.000	
1647	   D	0.003	3.499	5.501	 H	1	CV1	0.000	
1648	   D	1.003	3.499	5.501	 H	1	CV1	0.000	
1649	   D	-0.997	4.499	5.501	 H	1	CV1	0.000	
1650	   D	0.003	4.499	5.501	 H	1	CV1	0.000	
1651	   D	1.003	4.499	5.501	 H	1	CV1	0.000	
1652	   D	-1.997	5.499	5.501	 H	1	CV1	0.000	
1653	   D	-0.997	5.499	5.501	 H	1	CV1	0.000	
1654	   D	0.003	5.499	5.501	 H	1	CV1	0.000	
1655	   D	1.003	5.499	5.501	 H	1	CV1	0.000	
1656	   D	-0.997	-1.501	6.501	 H	1	CV1	0.000	
1657	   D	0.003	-1.501	6.501	 H	1	CV1	0.000	
1658	   D	-0.997	-0.501	6.501	 H	1	CV1	0.000	
1659	   D	0.003	-0.501	6.501	 H	1	CV1	0.000	
1660	   D	1.003	-0.501	6.501	 H	1	CV1	0.000	
1661	   D	2.003	-0.501	6.501	 H	1	CV1	0.000	
1662	   D	-0.997	0.499	6.501	 H	1	CV1	0.000	
1663	   D	0.003	0.499	6.501	 H	1	CV1	0.000	
1664	   D	1.003	0.499	6.501	 H	1	CV1	0.000	
1665	   D	2.003	0.499	6.501	 H	1	CV1	0.000	
1666	   D	-1.997	1.499	6.501	 H	1	CV1	0.000	
1667	   D	-0.997	1.499	6.501	 H	1	CV1	0.000	
1668	   D	0.003	1.499	6.501	 H	1	CV1	0.000	
1669	   D	1.003	1.499	6.501	 H	1	CV1	0.000	
1670	   D	2.003	1.499	6.501	 H	1	CV1	0.000	
1671	   D	-1.997	2.499	6.501	 H	1	CV1	0.000	
1672	   D	0.003	2.499	6.501	 H	1	CV1	0.000	
1673	   D	1.003	2.499	6.501	 H	1	CV1	0.000	
1674	   D	-1.997	3.499	6.501	 H	1	CV1	0.000	
1675	   D	1.003	5.499	6.501	 H	1	CV1	0.000	
1676	   D	0.003	-0.501	7.501	 H	1	CV1	0.000	
1677	   D	1.003	-0.501	7.501	 H	1	CV1	0.000	
1678	   D	2.003	-0.501	7.501	 H	1	CV1	0.000	
1679	   D	-0.997	0.499	7.501	 H	1	CV1	0.000	
1680	   D	0.003	0.499	7.501	 H	1	CV1	0.000	
1681	   D	1.003	0.499	7.501	 H	1	CV1	0.000	
1682	   D	1.003	1.499	7.501	 H	1	CV1	0.000	
1683	   D	0.003	-0.501	8.501	 H	1	CV1	0.000	
1684	   D	1.003	-0.501	8.501	 H	1	CV1	0.000	
1685	   D	-0.997	0.499	8.501	 H	1	CV1	0.000	
1686	   D	0.003	0.499	8.501	 H	1	CV1	0.000	
1687	   D	1.003	0.499	8.501	 H	1	CV1	0.000	
1688	   D	1.003	1.499	8.501	 H	1	CV1	0.000	
1689	   D	0.003	-0.501	9.501	 H	1	CV1	0.000	
1690	   D	0.003	0.499	9.501	 H	1	CV1	0.000	
1691	   D	1.003	0.499	9.501	 H	1	CV1	0.000	
@<TRIPOS>BOND
@<TRIPOS>SUBSTRUCTURE
1	CV1	1	GROUP	1 B	CV
